    9
 SCF done       0.00000000
N         -0.811739127748    0.588298713217   -0.298970129266
C         -0.210116289458   -0.484931598515   -0.053881558565
N         -0.778579613099   -1.773920783813   -0.378183848415
N         -1.710943608175   -2.228240196202   -0.840585488403
O          0.582518365288   -2.794142249975    0.230711615481
N          1.413366035716   -1.937554992998    0.664149695544
C          1.073571233004   -0.697995893623    0.552642914957
H         -1.724118966518    0.515660978003   -0.739485934006
H          1.720566019190    0.084130000006    0.894659777174
    9
 SCF done      -0.00059414
N         -0.811195716730    0.588929459902   -0.298900793021
C         -0.211557408455   -0.485089244100   -0.052540602138
N         -0.777230746468   -1.773854427217   -0.380128457693
N         -1.709589497532   -2.229532557936   -0.841124177647
O          0.580994334560   -2.794013267850    0.233717049638
N          1.413004330499   -1.937470594093    0.662493635665
C          1.074034509225   -0.697746582651    0.551641614527
H         -1.724912942491    0.516478755595   -0.738686091803
H          1.720977185391    0.083602434550    0.894584866871
    9
 SCF done       0.06469034
N         -0.800545532865    0.591379824343   -0.313608242654
C         -0.219941646850   -0.487606102651   -0.043952430123
N         -0.785897115592   -1.774374235140   -0.369675424683
N         -1.729468176774   -2.235736676715   -0.799399259419
O          0.604843605778   -2.793397671634    0.194264399737
N          1.419995378948   -1.936250119703    0.643806257220
C          1.068628972017   -0.697800981499    0.562041828983
H         -1.708784162415    0.522010906529   -0.768535270850
H          1.705692725855    0.083079032570    0.926115186189
    9
 SCF done       0.66512072
N         -0.794310908916    0.591769877423   -0.325232108744
C         -0.214876000255   -0.490351819777   -0.048590550258
N         -0.786236030761   -1.771496088992   -0.381012627435
N         -1.751592262871   -2.236379353122   -0.758777356781
O          0.628083610232   -2.800030899652    0.168003084497
N          1.428319397671   -1.938692767222    0.637922151052
C          1.060208430448   -0.701637413438    0.571303792447
H         -1.699008556430    0.529629735853   -0.777961535697
H          1.683936368880    0.088492705025    0.945402195318
    9
 SCF done       1.94382187
N         -0.778482492440    0.596804590883   -0.356629232159
C         -0.220878120356   -0.489556344940   -0.040263631685
N         -0.797433820978   -1.770721249114   -0.371863648587
N         -1.780181585432   -2.251617346538   -0.673291040833
O          0.662651739526   -2.799557337073    0.098596383006
N          1.443928430254   -1.937368896342    0.603289749357
C          1.050236686443   -0.703878271116    0.586468194670
H         -1.675685056778    0.543423712987   -0.823437608624
H          1.650368267862    0.083775117354    1.008187879354
    9
 SCF done       3.69302854
N         -0.760555611347    0.599597552484   -0.392341349287
C         -0.228577942185   -0.487282398229   -0.029688987410
N         -0.809967620541   -1.770581948147   -0.356320061682
N         -1.802972036764   -2.269261066196   -0.579915788023
O          0.688767122727   -2.786862093085    0.018644120131
N          1.458191136227   -1.932318854133    0.563753821455
C          1.040328695885   -0.706410793157    0.605604712723
H         -1.647716892874    0.552280337739   -0.877633495724
H          1.617027196872    0.072143238925    1.078954072417
    9
 SCF done       5.31322786
N         -0.746695445403    0.600566348954   -0.420847756699
C         -0.235880818448   -0.485007009235   -0.019188340134
N         -0.820432777250   -1.769916280448   -0.343097029474
N         -1.815586330657   -2.284087671005   -0.510324659854
O          0.700268061614   -2.771433958013   -0.041726909351
N          1.468558081650   -1.925823107320    0.532518092262
C          1.034165807006   -0.708602027092    0.621015275221
H         -1.624370949948    0.555310488276   -0.921735184247
H          1.594498419435    0.060297191884    1.134443556576
    9
 SCF done      12.37750389
N         -0.692058312772    0.584127732475   -0.524392619228
C         -0.262388493662   -0.475763909671    0.036530805020
N         -0.872183873673   -1.744563369879   -0.225679042238
N         -1.840155980116   -2.314433292076   -0.366640803274
O          0.730487783217   -2.702735939754   -0.253258892217
N          1.487279412359   -1.908540792989    0.435474672114
C          1.030399345497   -0.704245721576    0.667433085681
H         -1.568737015402    0.522379159281   -1.054698786293
H          1.541881182651    0.015080110388    1.316288624934
    9
 SCF done      11.15262595
N         -0.693075520853    0.601308586997   -0.511745160600
C         -0.255601503729   -0.476426579998    0.006289766941
N         -0.873148616640   -1.748422555815   -0.245440015728
N         -1.831321709905   -2.328224714270   -0.347190336620
O          0.721572995246   -2.700000447377   -0.241675964716
N          1.478285986667   -1.909135565168    0.446315462372
C          1.026769278436   -0.711070465391    0.672051533802
H         -1.566364176512    0.527526522402   -1.057559279617
H          1.547407315390    0.015749194821    1.310011038565
    9
 SCF done      19.07942160
N         -0.632182241784    0.590809064821   -0.595995344294
C         -0.277602683151   -0.451213665694    0.020409638086
N         -0.889247635472   -1.716652807085   -0.172688007282
N         -1.801088351967   -2.393026105276   -0.178755920789
O          0.685644308847   -2.600111983572   -0.383178900106
N          1.465188956134   -1.880121276694    0.371052192597
C          1.005766513658   -0.715128113325    0.710091978035
H         -1.476854843662    0.503793598208   -1.179656573686
H          1.474900025398   -0.067044735183    1.439777981438
    9
 SCF done      27.68327065
N         -0.568900559675    0.544351908205   -0.719627359448
C         -0.285711061323   -0.449451832141    0.015767084710
N         -0.936035219298   -1.692260170239   -0.097404510223
N         -1.826801341203   -2.382930776544    0.048639688367
O          0.753663853303   -2.458123455939   -0.552005543305
N          1.492078001846   -1.835808546197    0.303851853978
C          0.982630084043   -0.727358265648    0.729184229488
H         -1.407547580743    0.472477488891   -1.276020078489
H          1.351147871152   -0.199592374288    1.578671679022
    9
 SCF done      26.27931987
N         -0.512514246655    0.341380833196   -0.805695798289
C         -0.411935358324   -0.549246083076    0.077875409245
N         -1.304438668054   -1.598520283433    0.164527470784
N         -2.226778368403   -2.084662610320    0.627862467200
O          1.543089105868   -2.048337306981   -1.086797370975
N          1.628910191091   -1.598192153292    0.089421696886
C          0.858318580118   -0.902429672122    0.788301743527
H         -1.176824230007    0.233456530301   -1.561069122531
H          1.156697042265   -0.522145278172    1.736630548253
    9
 SCF done      25.40400916
N         -0.455566551256    0.244954376001   -0.862067469961
C         -0.407472294256   -0.587496374509    0.091343864825
N         -1.341597542240   -1.564287778034    0.240112264895
N         -2.321618009737   -2.015252122323    0.606157468305
O          1.635153021068   -1.813536914125   -1.170408974287
N          1.685801396140   -1.529828510698    0.051288427992
C          0.870026773062   -0.913254302595    0.805088261272
H         -1.196279925595    0.121033013455   -1.559423037832
H          1.086077180813   -0.671027410972    1.828966239092
    9
 SCF done      24.03207273
N         -0.415161235399    0.176031478953   -0.895978758436
C         -0.428802261933   -0.611343523400    0.090512126581
N         -1.377933603853   -1.580123584313    0.262628243628
N         -2.357935588218   -1.966048302505    0.689590650027
O          1.651865936439   -1.645144399824   -1.205239487909
N          1.705971600575   -1.456631562369    0.029632571598
C          0.850715528768   -0.932553389220    0.822981195907
H         -1.121575760216    0.070436444679   -1.619451517833
H          1.047379431937   -0.783319185801    1.856382020437
    9
 SCF done      26.07143366
N         -0.363734002434    0.130796681867   -0.920475616777
C         -0.437484682780   -0.607208619060    0.107896873867
N         -1.396002898660   -1.576884574825    0.245366833694
N         -2.328238758905   -1.958305722412    0.778336133957
O          1.579120964202   -1.555818340956   -1.225249982977
N          1.718789087758   -1.390368603139    0.012375049224
C          0.818119085758   -0.950437608411    0.828075033903
H         -1.029763970339    0.033622127565   -1.673540012148
H          0.993719223399   -0.854091364430    1.878272731558
    9
 SCF done      22.00089883
N         -0.325245832617    0.030768501625   -0.967947014522
C         -0.466647893805   -0.621449090401    0.112009957565
N         -1.446501856426   -1.553042336962    0.330469797190
N         -2.394500191899   -1.898229888847    0.850953150413
O          1.697754258432   -1.324678705780   -1.260353769972
N          1.686777463294   -1.382689074467    0.001919576040
C          0.812113632875   -0.992245162721    0.810929962442
H         -0.989178375730   -0.053754636200   -1.712379653266
H          0.979952843977   -0.933375630047    1.865455038311
    9
 SCF done      19.68964456
N         -0.251935162643   -0.045910506442   -0.963386635029
C         -0.465991344328   -0.641952630745    0.156286293449
N         -1.434931857586   -1.533314118745    0.347513166581
N         -2.450631337661   -1.898249946968    0.709459827358
O          1.523868970441   -1.205559761935   -1.215409115063
N          1.710566579769   -1.258355039072   -0.020443231008
C          0.823824234951   -0.965401800343    0.862215245124
H         -0.913317313899   -0.143873811388   -1.732701816648
H          1.013071278956   -1.036078408061    1.887523309437
    9
 SCF done      17.25529260
N         -0.228796014893   -0.109082199954   -1.001068697416
C         -0.467942158230   -0.667701220339    0.135384037491
N         -1.485760772163   -1.540207609883    0.352593319532
N         -2.493818830619   -1.798824602799    0.807539753434
O          1.614119037643   -1.052670213852   -1.230892159705
N          1.722918733922   -1.233595584740   -0.000630061177
C          0.806969940810   -1.021413157315    0.852128486032
H         -0.876578521902   -0.198392336285   -1.781995405815
H          0.963412633433   -1.106809098734    1.897997771924
    9
 SCF done      12.56938767
N         -0.171458363171   -0.181882871092   -1.027179782910
C         -0.483574868305   -0.697566191020    0.126664448804
N         -1.545096885829   -1.530649796818    0.340755945963
N         -2.525554517886   -1.749144761014    0.873781260948
O          1.620917122862   -0.831904783652   -1.194876185201
N          1.736653415859   -1.158422615688    0.014942297260
C          0.784548149783   -1.072746201708    0.845942967879
H         -0.769564861095   -0.273585484307   -1.835642710835
H          0.907654855882   -1.232793318502    1.886668802193
    9
 SCF done      10.08021322
N         -0.176546677569   -0.168751669416   -1.024845256580
C         -0.474001963990   -0.743843361871    0.104639752715
N         -1.537168251393   -1.573849993399    0.274768508155
N         -2.517461252545   -1.745288762061    0.831870209231
O          1.664551705234   -0.731025572911   -1.122622230966
N          1.760282837208   -1.117061820653    0.071172642763
C          0.770144882844   -1.082317418748    0.853794674599
H         -0.750802944438   -0.247681212529   -1.859195341320
H          0.815525712750   -1.318876212014    1.901474085605
    9
 SCF done       8.56531278
N         -0.130998879649   -0.215399286101   -1.036591060917
C         -0.477663828599   -0.760330086126    0.108005365024
N         -1.557420805237   -1.557875618490    0.269825816645
N         -2.542717112644   -1.706220411961    0.833257057511
O          1.631587130271   -0.607654274016   -1.085883312799
N          1.765154221729   -1.073176568229    0.093081086536
C          0.758834390035   -1.100835317181    0.857275630025
H         -0.700198906883   -0.305268884074   -1.893255058241
H          0.807947838877   -1.401935577422    1.885341520517
    9
 SCF done       6.37109643
N         -0.110116344248   -0.213773067590   -1.039920911280
C         -0.482745885707   -0.753752504818    0.112655850418
N         -1.535481976969   -1.559052233842    0.302004778624
N         -2.537572589260   -1.714860791677    0.831232707604
O          1.553987819556   -0.607995979947   -1.078881813569
N          1.747493871414   -1.053401379977    0.087618188228
C          0.748510828137   -1.097476552714    0.859911347185
H         -0.638956955062   -0.305419891783   -1.920906378344
H          0.809405280040   -1.422963621353    1.877343275234
    9
 SCF done       3.64547033
N         -0.059623555660   -0.280002549990   -1.046111865813
C         -0.504116304870   -0.747257642359    0.174080258895
N         -1.532802072619   -1.538333447191    0.342857677271
N         -2.561936547910   -1.751458752330    0.789276911515
O          1.400784837438   -0.589131259894   -1.117704692798
N          1.753863410986   -1.012999323286    0.079301093655
C          0.745872747866   -1.103151897986    0.880854432283
H         -0.530117221226   -0.266564697270   -1.964812702699
H          0.842598754093   -1.439796453293    1.893315931891
    9
 SCF done      -0.84139573
N         -0.053724076455   -0.752140195700   -1.249160322199
C         -0.481683187168   -0.946755115730    0.103823039374
N         -1.583377412932   -1.524261661431    0.362210154379
N         -2.604123434108   -1.679720781060    0.852968469315
O          1.353880473042   -0.554238888505   -1.135537459157
N          1.777206717813   -0.843370423203    0.128786214329
C          0.748293003999   -1.094816773263    0.864904935854
H         -0.424070579319    0.054080919610   -1.788717371687
H          0.822122543228   -1.387473104519    1.891779383893
    9
 SCF done      -3.03982883
N         -0.045099279606   -0.740992074303   -1.244989748953
C         -0.472010040614   -0.998021811096    0.085436250008
N         -1.592686219769   -1.555232456726    0.365679354856
N         -2.640254779215   -1.677028335309    0.811221678439
O          1.382325131241   -0.574086541691   -1.152511953351
N          1.768511767013   -0.829465656682    0.128230076087
C          0.750226778896   -1.096675405306    0.852035395110
H         -0.442774187733    0.066475449361   -1.707167138693
H          0.846284877887   -1.323669191949    1.893123130698
    9
 SCF done      -4.30127793
N         -0.047174818570   -0.758188769099   -1.266152775539
C         -0.465491440771   -1.029752471450    0.066429064861
N         -1.602884018981   -1.524278984580    0.364597310621
N         -2.632799568315   -1.667662841261    0.840845295777
O          1.388069499475   -0.575360586827   -1.144683805634
N          1.760857478876   -0.818039070938    0.129609533875
C          0.749185885590   -1.101437772254    0.847407900366
H         -0.428073294196    0.075786904979   -1.696631728470
H          0.832834324993   -1.329762432369    1.889636248443
    9
 SCF done      -4.11987716
N         -0.039246054132   -0.764089288570   -1.261016187448
C         -0.463614805559   -1.022425322993    0.076332622644
N         -1.603948562646   -1.506738856139    0.377621085793
N         -2.639445008761   -1.670799041440    0.833188200944
O          1.384578807380   -0.548928148089   -1.125771235414
N          1.768574117195   -0.813197085866    0.135927756282
C          0.752369623306   -1.115000766217    0.848465215994
H         -0.437099983149    0.062725730140   -1.742632865372
H          0.832355914366   -1.350243244325    1.888942450779
    9
 SCF done      -4.88942514
N         -0.044913644555   -0.770773327637   -1.262207054666
C         -0.456702203405   -1.048020442978    0.075697015849
N         -1.601318326675   -1.505593417284    0.381596258500
N         -2.654536548148   -1.665122033646    0.789133235000
O          1.381888099309   -0.555622883074   -1.136078772618
N          1.769479084486   -0.801927049720    0.131704209267
C          0.761764263082   -1.106343433292    0.851246345926
H         -0.447813057489    0.057427960225   -1.693662304409
H          0.846676381496   -1.332721396294    1.893628111251
    9
 SCF done      -4.99850837
N         -0.037175619741   -0.780244161909   -1.273823162122
C         -0.451083759799   -1.079916764480    0.061109720486
N         -1.608271946021   -1.475899786847    0.388731560065
N         -2.651996307539   -1.667493082521    0.807617015943
O          1.386741805928   -0.559074347087   -1.142197742380
N          1.764943026784   -0.788523090354    0.135999096330
C          0.759493103370   -1.110165905807    0.843971612931
H         -0.443491500399    0.065151885570   -1.677908569636
H          0.835365245418   -1.332530770263    1.887557512582
    9
 SCF done      -5.12898791
N         -0.039118143417   -0.769946876969   -1.279680268150
C         -0.456934761657   -1.068797704801    0.055680653834
N         -1.618116984618   -1.457892314812    0.377182398085
N         -2.636632612255   -1.710906061165    0.829926182386
O          1.390742120136   -0.571172433191   -1.144316796144
N          1.767004326659   -0.802553226521    0.133783864507
C          0.752349650128   -1.106696633697    0.844169239473
H         -0.426824248674    0.082193333658   -1.676346663424
H          0.822054701797   -1.322924106102    1.890658433535
    9
 SCF done      -5.10754779
N         -0.041148443483   -0.777235143863   -1.274902660955
C         -0.452775643581   -1.074964177912    0.062724965898
N         -1.614981592296   -1.458019044372    0.384769673643
N         -2.648392634588   -1.697362750001    0.800458935867
O          1.387999949218   -0.561651482888   -1.137759808657
N          1.767128253510   -0.796392707582    0.135628039324
C          0.756357704390   -1.105049139391    0.849579504353
H         -0.438503498493    0.069952249534   -1.682010908824
H          0.838839953322   -1.327973827525    1.892569303652
    9
 SCF done      -5.19926970
N         -0.040857491950   -0.781783176272   -1.274254248031
C         -0.447932961592   -1.090048558833    0.061906882279
N         -1.611899251040   -1.461980136439    0.389731077220
N         -2.657792667502   -1.681713585656    0.788854191479
O          1.385973615069   -0.556908082169   -1.141836598493
N          1.770355032229   -0.789676099616    0.134650653032
C          0.762824100612   -1.107785049419    0.848009599290
H         -0.447395001501    0.069479621525   -1.668217961427
H          0.841248673773   -1.328280956921    1.892213448751
    9
 SCF done      -5.22019758
N         -0.040770449812   -0.780043514964   -1.278118046472
C         -0.447643587466   -1.094092317921    0.056018383633
N         -1.611795956565   -1.458357876608    0.391855154970
N         -2.653211569169   -1.686392093296    0.798321013854
O          1.387559595274   -0.558154988591   -1.141426125178
N          1.768895183414   -0.788454270610    0.135202974254
C          0.759614420066   -1.108701528114    0.846480824067
H         -0.442472601888    0.074306751873   -1.668098832863
H          0.834349014146   -1.328806185469    1.890821698036
    9
 SCF done      -5.24226088
N         -0.041966155547   -0.782793969321   -1.280439732179
C         -0.448073924333   -1.097270537722    0.055685878433
N         -1.614038660518   -1.449395616548    0.394460282637
N         -2.653857712355   -1.692015338469    0.794792358238
O          1.388558132202   -0.559999728183   -1.141732115987
N          1.768438741387   -0.788280184582    0.134330087530
C          0.759752536180   -1.107721346752    0.846353156955
H         -0.440364594314    0.075900608569   -1.663365863442
H          0.836075685299   -1.327119910692    1.890972992015
    9
 SCF done      -5.24918793
N         -0.042332504280   -0.782180012702   -1.280568278028
C         -0.448305330470   -1.096807888448    0.055285266888
N         -1.615094029346   -1.444572060711    0.395287573078
N         -2.652805511116   -1.696641534917    0.794959360339
O          1.389509773124   -0.561249356616   -1.141108503598
N          1.768165003452   -0.789161123763    0.133585309674
C          0.759861104215   -1.107647468510    0.846359274598
H         -0.439732160574    0.076289882735   -1.663755004352
H          0.835257702995   -1.326726460867    1.891012045503
    9
 SCF done      -5.25061606
N         -0.042254003993   -0.781602124218   -1.280482361654
C         -0.448697632255   -1.095557142261    0.055125396847
N         -1.616078691423   -1.439876911904    0.395899934038
N         -2.651517002648   -1.701451760128    0.795010105187
O          1.389972017307   -0.562455443951   -1.140343411704
N          1.767989655926   -0.790914033856    0.133287347983
C          0.759490427314   -1.107549738641    0.846577303744
H         -0.439645603701    0.076789781715   -1.665134117117
H          0.835264881474   -1.326078650456    1.891116846776
    9
 SCF done      -5.25082075
N         -0.042194189600   -0.782796077200   -1.280487021700
C         -0.448101482200   -1.097781256900    0.055519583700
N         -1.614888058700   -1.442513875600    0.398391686600
N         -2.654496766800   -1.696617815900    0.792097279200
O          1.389766438600   -0.559664625900   -1.140463459600
N          1.768114875900   -0.788219543300    0.132401978100
C          0.760790292800   -1.108730577600    0.846307982100
H         -0.440395188100    0.074679823000   -1.664059519700
H          0.835928126300   -1.327052074500    1.891348535500
    9
 SCF done      -5.25137426
N         -0.041625220000   -0.783268633300   -1.280053525800
C         -0.447503681800   -1.098053203800    0.055389397900
N         -1.615102658300   -1.439984940100    0.399832108700
N         -2.654287160900   -1.697417470300    0.791656940500
O          1.389296538400   -0.558606084500   -1.140221846700
N          1.768590063600   -0.788294068100    0.132488354400
C          0.761246859800   -1.108616468400    0.846535112700
H         -0.441352587200    0.073734108000   -1.665916656100
H          0.835261894500   -1.328189263400    1.891347158600
    9
 SCF done      -5.25247757
N         -0.041847262300   -0.782839626400   -1.279818851000
C         -0.447569061400   -1.097957147900    0.055460584000
N         -1.614867711300   -1.438655814100    0.399512642900
N         -2.653724822500   -1.698219056500    0.791587998300
O          1.389348174400   -0.559095590300   -1.140355525000
N          1.768522722900   -0.788452687400    0.133025305800
C          0.760865347800   -1.108718762700    0.846517793500
H         -0.441769202600    0.073441936000   -1.666189600400
H          0.835565863100   -1.328199274500    1.891316696100
    9
 SCF done      -5.25228254
N         -0.041756254200   -0.783257954600   -1.279971972800
C         -0.447387421200   -1.099326435400    0.054999503500
N         -1.615418422000   -1.438373739200    0.399349689700
N         -2.654216321700   -1.697606075000    0.791948110800
O          1.389519595000   -0.558629571100   -1.140550707200
N          1.768434954500   -0.787602443200    0.133357175700
C          0.760794906500   -1.108640984500    0.846464874700
H         -0.441421069800    0.073210590400   -1.665784967900
H          0.835974081000   -1.328469411200    1.891245337600
    9
 SCF done      -5.25243861
N         -0.041636486200   -0.783128042100   -1.280011480600
C         -0.447403759800   -1.099307804200    0.054994990200
N         -1.615297895600   -1.438437317800    0.399490291800
N         -2.654151551500   -1.697691214900    0.791883833100
O          1.389616121700   -0.558758636300   -1.140461116600
N          1.768488087800   -0.787723473200    0.133321858000
C          0.760814851100   -1.108767718900    0.846425991200
H         -0.441717656100    0.073397581600   -1.665819853400
H          0.835812336700   -1.328279397900    1.891232530400
    9
 SCF done      -5.25245767
N         -0.041506064600   -0.783044379800   -1.280020627800
C         -0.447443434800   -1.099280007600    0.055023658200
N         -1.615272174900   -1.438420860700    0.399524522600
N         -2.654114621400   -1.697621527000    0.791915857700
O          1.389597656800   -0.558571723000   -1.140405454200
N          1.768469889200   -0.787806323600    0.133320318900
C          0.760817623200   -1.108814101700    0.846422330000
H         -0.441813396700    0.073219465300   -1.665956639100
H          0.835788571200   -1.328356565600    1.891233077700
