    9
 SCF done       0.00000000
N         -0.811426864028    0.588607261449   -0.300636109392
C         -0.209944073394   -0.484435880552   -0.054458968257
N         -0.778798615068   -1.774075298365   -0.378498127294
N         -1.711014624333   -2.229956920017   -0.839772672326
O          0.583691311066   -2.794185496081    0.231123790462
N          1.413265535003   -1.936620992251    0.664596706682
C          1.073763821485   -0.697586899643    0.553263032155
H         -1.724124721489    0.514755628926   -0.740398898452
H          1.719528109257    0.084718960034    0.896538428122
    9
 SCF done      -0.00221553
N         -0.811354420996    0.588842951965   -0.299835563751
C         -0.211337697778   -0.484796461836   -0.052966885110
N         -0.777537883468   -1.773921970584   -0.379655062791
N         -1.709461272581   -2.230388222041   -0.840586327536
O          0.582426435350   -2.793917594396    0.233354143742
N          1.412773668137   -1.936912799453    0.663685399922
C          1.073947477971   -0.697403227244    0.552538253035
H         -1.724699961512    0.515259898650   -0.740339232919
H          1.720183533277    0.084457788339    0.895562457007
    9
 SCF done       0.00520482
N         -0.810137113410    0.589072769356   -0.301051485657
C         -0.213179428064   -0.485525936521   -0.050680493781
N         -0.776957968132   -1.773939960396   -0.380767451245
N         -1.710696724363   -2.231016438739   -0.837742497211
O          0.582886802596   -2.793727847339    0.232935906862
N          1.413796216122   -1.936843457747    0.660556298602
C          1.073918501192   -0.697104025373    0.552585571491
H         -1.723855996059    0.515891823540   -0.742294995040
H          1.719165588619    0.084413436619    0.898216327880
    9
 SCF done       0.02738609
N         -0.808362183878    0.589387419004   -0.303766468237
C         -0.215215506581   -0.486056223697   -0.047601627958
N         -0.777005197214   -1.773936572701   -0.381692394768
N         -1.714027567947   -2.231639451548   -0.831410728617
O          0.585120628825   -2.794338272060    0.229908420577
N          1.416174376894   -1.936641549562    0.655683261464
C          1.073491543504   -0.696912131893    0.553386191072
H         -1.721762719108    0.516764276023   -0.746470447510
H          1.716526504005    0.084592870034    0.903720975878
    9
 SCF done       0.08371025
N         -0.805213379961    0.589943625388   -0.309062030615
C         -0.218143370477   -0.486482762206   -0.042921127332
N         -0.778336752068   -1.773877358300   -0.381755615336
N         -1.720935420787   -2.232649128665   -0.818506137823
O          0.590790306756   -2.796038053411    0.221864245051
N          1.420759426951   -1.936323944318    0.647109097825
C          1.072433571806   -0.696714232761    0.555482194320
H         -1.717520168809    0.518372465435   -0.755280365864
H          1.711105665090    0.084989752238    0.914826921575
    9
 SCF done       0.08644146
N         -0.800514294450    0.589733101791   -0.317535019346
C         -0.218719564791   -0.487473190639   -0.042005475630
N         -0.784441996865   -1.773836624551   -0.371720234827
N         -1.734027338942   -2.233435162596   -0.790137091481
O          0.608272639576   -2.792987730427    0.188251392127
N          1.422677613861   -1.936397539488    0.643128698608
C          1.067095950493   -0.698143707876    0.565282028734
H         -1.706813610528    0.519353261468   -0.774594596470
H          1.701410480148    0.084407955618    0.931087479985
    9
 SCF done       0.24630439
N         -0.793406212144    0.590263284033   -0.329932728934
C         -0.223242333501   -0.488007846515   -0.034408692619
N         -0.790782769678   -1.773459706998   -0.366262123066
N         -1.750025542650   -2.236477499340   -0.755647515623
O          0.626267906534   -2.792555088847    0.157556916535
N          1.429831515389   -1.935938217531    0.629089657904
C          1.062361277297   -0.699102780735    0.573459603998
H         -1.694532330213    0.522560473662   -0.797460630971
H          1.688468367367    0.083937745870    0.955362694575
    9
 SCF done       0.55871950
N         -0.796840120762    0.592012281513   -0.323476966453
C         -0.213562832287   -0.488958902112   -0.050617574084
N         -0.782951270178   -1.771659208572   -0.380976772061
N         -1.747262623789   -2.238604441125   -0.758261257994
O          0.624337614663   -2.793900756223    0.167438431149
N          1.423200912230   -1.938694672975    0.644377285210
C          1.061418514914   -0.700996809712    0.572433456899
H         -1.701497772514    0.527047662369   -0.781732611880
H          1.688097456222    0.084975210338    0.942573191313
    9
 SCF done       1.00571408
N         -0.792045196252    0.594801712215   -0.332112465544
C         -0.215301616019   -0.489308095676   -0.048580957721
N         -0.785004108452   -1.770918444535   -0.384048935654
N         -1.758226540131   -2.245272101881   -0.727509918040
O          0.636917374922   -2.795632044215    0.147316244494
N          1.428271623843   -1.939355914332    0.634597990288
C          1.057704881266   -0.702122011222    0.577561435718
H         -1.693999134617    0.534382780846   -0.796342617700
H          1.676622594041    0.084644482300    0.960876406059
    9
 SCF done       1.54064189
N         -0.786327287721    0.597804172284   -0.342818341469
C         -0.217878796394   -0.489208112330   -0.045695781240
N         -0.788539131983   -1.770372516552   -0.383955867145
N         -1.769386939805   -2.252878682955   -0.691610379336
O          0.649788215248   -2.796140041597    0.122198160979
N          1.434532321168   -1.939134045850    0.620926197004
C          1.053715199567   -0.703124928130    0.583629603974
H         -1.684488081451    0.541351924126   -0.815219100278
H          1.663524379871    0.082922594404    0.984302689411
    9
 SCF done       2.11281250
N         -0.780430174903    0.600514511702   -0.353962936788
C         -0.220716877932   -0.488863400433   -0.042602903197
N         -0.792771564232   -1.769925391124   -0.381635441452
N         -1.779199583992   -2.260477564734   -0.655380730586
O          0.661484430325   -2.794848056574    0.095289835431
N          1.440511866059   -1.938275158569    0.606506120676
C          1.049676363242   -0.704181497611    0.589978989629
H         -1.674349702275    0.547082141322   -0.835054267052
H          1.650735122308    0.080194779320    1.008618515239
    9
 SCF done       5.59118926
N         -0.746639188542    0.607392817956   -0.412436047858
C         -0.239407683912   -0.485378442539   -0.022559205254
N         -0.824723892030   -1.764802726402   -0.334382477551
N         -1.825449566226   -2.291366975728   -0.475076216871
O          0.718694490248   -2.767592502942   -0.085388284732
N          1.465366042576   -1.935577594046    0.525834244972
C          1.030138606101   -0.707163879945    0.633976565386
H         -1.618436745342    0.548550649941   -0.950401350979
H          1.595397815527    0.067159017306    1.152189954587
    9
 SCF done       9.23172783
N         -0.723489845800    0.615020456156   -0.452180964163
C         -0.254103891102   -0.476547682940   -0.014419196557
N         -0.843774590036   -1.763380868124   -0.299928140032
N         -1.824501329083   -2.326676265235   -0.359710895354
O          0.735541908206   -2.726151737654   -0.184342285913
N          1.468852017499   -1.923304741345    0.481127605330
C          1.009692574685   -0.716089466617    0.657928442378
H         -1.573069643184    0.555318429680   -1.020091364317
H          1.559792677315    0.033032239680    1.223373980429
    9
 SCF done      13.04206191
N         -0.697287893837    0.617265379204   -0.509700774492
C         -0.266940444177   -0.466156373365   -0.006985653756
N         -0.859133144446   -1.751472687667   -0.277183173846
N         -1.813003827136   -2.359721032111   -0.223525382036
O          0.733205322858   -2.695732225282   -0.265685637768
N          1.481164874925   -1.892753574934    0.410933107390
C          0.997860243075   -0.721762044338    0.668728454341
H         -1.530315796351    0.560038048206   -1.093600114812
H          1.509390543489   -0.018485126313    1.328776356780
    9
 SCF done      14.14881625
N         -0.686345917392    0.598693827338   -0.543711088766
C         -0.268596496880   -0.465846527250    0.017063151223
N         -0.865110287280   -1.755629017185   -0.233625409071
N         -1.830972450744   -2.355224613337   -0.228831378837
O          0.735005732068   -2.663258924738   -0.302500500511
N          1.495403366693   -1.893086570738    0.395754605030
C          1.002584641628   -0.720817672013    0.684625462786
H         -1.534753352836    0.552943860264   -1.104435661792
H          1.507724643243   -0.026553998641    1.347418001539
    9
 SCF done      19.43896141
N         -0.645242946140    0.606979116098   -0.571517955936
C         -0.297241269754   -0.453201108540    0.020841866743
N         -0.902243714766   -1.732557149892   -0.207048642293
N         -1.794874605015   -2.408506417246   -0.050016995994
O          0.764171755362   -2.586287046174   -0.467227270649
N          1.479099644336   -1.882950052865    0.342962667981
C          0.962378872724   -0.738250539532    0.720584953842
H         -1.458949324495    0.546273817277   -1.206646906878
H          1.447841466047   -0.080280255626    1.449825464984
    9
 SCF done      19.26628290
N         -0.651489973740    0.615762285221   -0.581682542653
C         -0.292185689454   -0.441844040674    0.013727370150
N         -0.893752077701   -1.730942015917   -0.205719658337
N         -1.775307853843   -2.416373382551   -0.039598603609
O          0.761457251757   -2.578635502504   -0.476823316731
N          1.465893852741   -1.889593057156    0.349847484125
C          0.974982262477   -0.727570844673    0.685177523891
H         -1.464855161802    0.546482250948   -1.196986100162
H          1.430197267866   -0.106065328994    1.483815025026
    9
 SCF done      25.13883702
N         -0.612610799294    0.571472158713   -0.643727262644
C         -0.295147195704   -0.449223100376    0.018921136586
N         -0.910057153132   -1.710297002447   -0.129832990253
N         -1.786494304087   -2.415997045057    0.046470630922
O          0.741165962068   -2.480493302651   -0.566466403660
N          1.496314871595   -1.846123969414    0.271068873391
C          0.974607582422   -0.731390366847    0.723574767517
H         -1.420626189970    0.509705814034   -1.257962752256
H          1.367787104602   -0.176432822356    1.569711182099
    9
 SCF done      26.22072299
N         -0.594675279703    0.590720375473   -0.664724014482
C         -0.304223084882   -0.444281898971   -0.002506561596
N         -0.921167472270   -1.704825630072   -0.128999572086
N         -1.746572527943   -2.445698919634    0.111403155147
O          0.768045701009   -2.476936628998   -0.593862691740
N          1.495376593221   -1.848547651791    0.263367082994
C          0.951305228454   -0.747490746467    0.725103876433
H         -1.415682273271    0.551341129990   -1.264313577319
H          1.322532993886   -0.203059665930    1.586289484148
    9
 SCF done      28.23623520
N         -0.587980918442    0.592750535917   -0.641721771929
C         -0.314864443749   -0.450223022247   -0.001851407797
N         -0.952137009714   -1.688864757285   -0.109589582570
N         -1.742110911991   -2.458592551278    0.157823565679
O          0.825808170272   -2.424161123483   -0.697493880132
N          1.498841897555   -1.844745871422    0.254881342749
C          0.942831971163   -0.759994711482    0.732122426020
H         -1.394359210984    0.545550182589   -1.297920756099
H          1.278910334290   -0.240498317709    1.635507245780
    9
 SCF done      34.10167655
N         -0.537621891794    0.538992420119   -0.704896815720
C         -0.320778450681   -0.507984352529   -0.057819450587
N         -1.072430892022   -1.663291296753   -0.067676707556
N         -1.744447978428   -2.436766856916    0.383822849758
O          0.965804199680   -2.246051321083   -0.837790091633
N          1.561986791259   -1.772480251852    0.177828741304
C          0.907808286744   -0.811226616555    0.757498260173
H         -1.348555173772    0.550620791798   -1.355402502305
H          1.143174987414   -0.380592152728    1.736192898366
    9
 SCF done      26.76726667
N         -0.561153877926    0.424473544894   -0.723797925281
C         -0.446011983369   -0.557893910035    0.038893012423
N         -1.315656140897   -1.616918421155    0.114405657069
N         -1.998594568957   -2.262539285009    0.740853089361
O          1.566221544137   -1.995896773430   -1.149962464362
N          1.661992242161   -1.537474869281    0.010032945508
C          0.835000593549   -0.924678537987    0.741072708732
H         -1.220706986710    0.381191704645   -1.503387106114
H          1.033849056412   -0.639043089142    1.763647264466
    9
 SCF done      21.68894558
N         -0.448712334940    0.203971949928   -0.883311882074
C         -0.479219957984   -0.607459993731    0.087391476613
N         -1.394252567416   -1.595362203091    0.286504184339
N         -2.164425957141   -2.113348410028    0.940093789659
O          1.708716510353   -1.490878704077   -1.287470606426
N          1.688981080887   -1.398804969098   -0.055671082908
C          0.814444428646   -0.985130638600    0.749127001207
H         -1.157218734634    0.174440117444   -1.608611363291
H          0.986627410629   -0.916206785047    1.803705664580
    9
 SCF done      17.91119424
N         -0.361212191563    0.009239981703   -0.965516377111
C         -0.474769709849   -0.675837669206    0.104049905774
N         -1.457127473527   -1.579517662579    0.386637044495
N         -2.300966816196   -1.962936863182    1.044722854053
O          1.672384026111   -1.100584944762   -1.322674741823
N          1.727912281181   -1.235247968232   -0.098972842708
C          0.820426909992   -1.040588253930    0.760554962231
H         -1.060681237220   -0.030241825415   -1.695304806521
H          0.988974089571   -1.113064430796    1.818261183410
    9
 SCF done      10.14849004
N         -0.281814593257   -0.145021606423   -1.002561217085
C         -0.455531522527   -0.714927736811    0.132022413250
N         -1.460908779073   -1.555763988720    0.467033014692
N         -2.411857959748   -1.813862781215    1.048105600197
O          1.474410243320   -0.745218866969   -1.291432769287
N          1.736614249649   -1.094134837136   -0.131925094611
C          0.853962667116   -1.056478523278    0.781017712459
H         -0.921466355242   -0.288408732902   -1.784343607684
H          1.021531928160   -1.314962562947    1.813841129868
    9
 SCF done       8.23918424
N         -0.285451076753   -0.184110546756   -1.006289505762
C         -0.456774067724   -0.747250070104    0.138702318501
N         -1.473423796565   -1.568293404196    0.468279300359
N         -2.428482870743   -1.748981610974    1.064232010867
O          1.480848924351   -0.683346108549   -1.273112327618
N          1.753480789375   -1.047050111574   -0.121731063312
C          0.855919593156   -1.063030129604    0.771629706647
H         -0.915557428146   -0.336230721103   -1.802880351172
H          1.024379811549   -1.350486933341    1.792927092989
    9
 SCF done       8.30738141
N         -0.302268457571   -0.172475565867   -1.007976946299
C         -0.461465086983   -0.770851107595    0.132168057317
N         -1.461934351533   -1.599964741022    0.465702556767
N         -2.423905276699   -1.766449663060    1.053468101207
O          1.528183717810   -0.657160989711   -1.268077113256
N          1.755270276758   -1.043369597848   -0.104857732850
C          0.850992649679   -1.064933647168    0.778897601667
H         -0.939503558622   -0.280681726349   -1.806612836285
H          1.009569965561   -1.372892597681    1.789045493632
    9
 SCF done       7.70021927
N         -0.284901350896   -0.180468180343   -1.006199805774
C         -0.476173750909   -0.775992300495    0.136993419561
N         -1.457427101564   -1.617713633359    0.475168400661
N         -2.402183204279   -1.813040351900    1.084519953775
O          1.470383270255   -0.637486691089   -1.259440129186
N          1.757460891057   -1.025045632494   -0.118638633975
C          0.840756583275   -1.066536397760    0.768040850459
H         -0.890294840115   -0.236704031475   -1.830894226995
H          0.997319381577   -1.375792417385    1.782207353274
    9
 SCF done       6.17723484
N         -0.239299206067   -0.209226304276   -1.011063165081
C         -0.478937135692   -0.762586325851    0.168384817753
N         -1.463967064425   -1.591241688733    0.480557154667
N         -2.420270555744   -1.809554532395    1.071233570516
O          1.390583652409   -0.593802083296   -1.258532688208
N          1.740931141827   -1.004268286309   -0.119136831064
C          0.840422305016   -1.066165452962    0.765700798374
H         -0.853100443593   -0.302447214055   -1.838662496342
H          1.038577184670   -1.389487748325    1.773276021184
    9
 SCF done       4.72122175
N         -0.221649799474   -0.219168402034   -1.000384068387
C         -0.470361054699   -0.762876075755    0.202589284285
N         -1.471532108654   -1.597605593326    0.490096906039
N         -2.452467255813   -1.819406017825    1.019871416936
O          1.323055788677   -0.572595502917   -1.267883270492
N          1.745218698441   -0.978612387990   -0.120301950387
C          0.864245705790   -1.075194310778    0.777007347743
H         -0.832772447414   -0.314079762977   -1.840394636121
H          1.071202351645   -1.389241582698    1.771156152083
    9
 SCF done       1.85148894
N         -0.203043712077   -0.283352483936   -1.023720468926
C         -0.471590030837   -0.815199532936    0.242120750001
N         -1.469667576864   -1.604218266380    0.528567534416
N         -2.491756400127   -1.829188339679    1.009368145220
O          1.223441065300   -0.486135766924   -1.264149851964
N          1.771789732910   -0.872661166114   -0.093722991141
C          0.874263632086   -1.097251652574    0.766008119218
H         -0.778772903756   -0.316496547800   -1.882804571845
H          1.100276071763   -1.424275879857    1.750090516822
    9
 SCF done       0.22146090
N         -0.204971264747   -0.703477235910   -1.207541446539
C         -0.458938680992   -1.010587475005    0.145460547388
N         -1.502872145406   -1.647723082551    0.522914063785
N         -2.485301350239   -1.835685695571    1.095509650239
O          1.244912067410   -0.441429792311   -1.263905263531
N          1.773367331553   -0.714788087455   -0.050202711982
C          0.847189994656   -1.065106238570    0.751106541507
H         -0.718335498702    0.039406476313   -1.749381354237
H          1.059889424967   -1.349388505139    1.787797155071
    9
 SCF done      -2.26982407
N         -0.188480925919   -0.755752128664   -1.237144970499
C         -0.450774195216   -1.029648201597    0.130651915275
N         -1.505359851897   -1.619842481730    0.531485913806
N         -2.494778184058   -1.787456459523    1.087788798055
O          1.204537844904   -0.432184393514   -1.254674316470
N          1.750381183690   -0.709913690267   -0.057031528007
C          0.845702080364   -1.094873764153    0.754362624213
H         -0.672069581962    0.063768910777   -1.699112960412
H          1.065781508394   -1.362877427730    1.775431705739
    9
 SCF done      -2.38927050
N         -0.191221761188   -0.729184579269   -1.227130740878
C         -0.447553314855   -1.024853126694    0.129624815224
N         -1.518355075979   -1.623924916367    0.526851770269
N         -2.489270939430   -1.802997950372    1.097580685735
O          1.223609118346   -0.432959316281   -1.260600837916
N          1.761185410026   -0.717029304795   -0.050066497444
C          0.857042561753   -1.100677571794    0.755437328436
H         -0.713600328796    0.040584254560   -1.700881667190
H          1.073104208625   -1.337737125188    1.760942325364
    9
 SCF done      -4.24963273
N         -0.194565280817   -0.737196142223   -1.253109045159
C         -0.453882040733   -1.050508343788    0.113474204737
N         -1.521550097795   -1.618614058910    0.519535287395
N         -2.485619435396   -1.836419916561    1.092591796541
O          1.225000084365   -0.448275703718   -1.276132738271
N          1.754918062899   -0.713452803664   -0.060132387378
C          0.846574384033   -1.081949962635    0.752688513822
H         -0.672579667305    0.084476394851   -1.628745403580
H          1.056643869149   -1.326839099653    1.771586953594
    9
 SCF done      -4.43072005
N         -0.186248392755   -0.758854417966   -1.254469800125
C         -0.446871514101   -1.076121681666    0.116953293877
N         -1.523921261802   -1.600079927351    0.535796319668
N         -2.514306207735   -1.826288568184    1.056478217026
O          1.224855948059   -0.443831392072   -1.273154412221
N          1.753481756286   -0.698370664616   -0.060712352658
C          0.850101975949   -1.072866898371    0.758314379767
H         -0.675736158094    0.066003458675   -1.632951371505
H          1.073583732592   -1.318369544648    1.785502907871
    9
 SCF done      -4.98391739
N         -0.191807232372   -0.753240495253   -1.261175633477
C         -0.439570778956   -1.093816597653    0.106175062340
N         -1.530161682670   -1.582072945040    0.526666877952
N         -2.502093702442   -1.856911081968    1.062793349797
O          1.230594494578   -0.460996586491   -1.279018733114
N          1.757734920217   -0.689270675001   -0.056995521448
C          0.848107421224   -1.067076533898    0.755261824432
H         -0.676419514891    0.071826931286   -1.602801965072
H          1.058555953711   -1.297221652283    1.780851920291
    9
 SCF done      -4.94035627
N         -0.195125827189   -0.754583487927   -1.258004040498
C         -0.443082565362   -1.078711920016    0.111849121220
N         -1.523440071362   -1.588623613751    0.539805910861
N         -2.501042163796   -1.851129110821    1.065099953907
O          1.226169645491   -0.466204744107   -1.281445562489
N          1.761175848561   -0.696273727491   -0.065077359662
C          0.853253223548   -1.066459359175    0.753761148879
H         -0.678784676026    0.069874161345   -1.610725352253
H          1.055816464535   -1.296667834357    1.776493361835
    9
 SCF done      -5.09776469
N         -0.191350046295   -0.751610214542   -1.259550923256
C         -0.439452060120   -1.089839131344    0.104846017488
N         -1.526318683320   -1.576815319883    0.537084972411
N         -2.495092315413   -1.850539101193    1.074821507397
O          1.227309772931   -0.455695103739   -1.278009567612
N          1.759834184849   -0.695898567676   -0.059474364661
C          0.849908792195   -1.069617147233    0.752582524896
H         -0.681560100939    0.068821570211   -1.615053307996
H          1.051660334711   -1.307586621100    1.774510323034
    9
 SCF done      -5.13946153
N         -0.193153545494   -0.758170872755   -1.260507054056
C         -0.435210775815   -1.104472647301    0.104392525538
N         -1.531480815955   -1.570115001906    0.535806259155
N         -2.507042658415   -1.848923896575    1.058079302044
O          1.228106957856   -0.458237798465   -1.280264702488
N          1.762776186104   -0.695127382468   -0.060093880215
C          0.854536543251   -1.071813164065    0.753689490996
H         -0.683313462497    0.073289267944   -1.598565377870
H          1.059721449365   -1.295208140709    1.779220618597
    9
 SCF done      -5.18692024
N         -0.193436278713   -0.757031949760   -1.266387829408
C         -0.435702020109   -1.105563434086    0.098718983520
N         -1.531239564900   -1.562477869316    0.540014286142
N         -2.500164832096   -1.856278372724    1.065732117303
O          1.230927920982   -0.460477223606   -1.281740031495
N          1.761310552041   -0.695230181202   -0.061362802674
C          0.854837369865   -1.071436997520    0.751585078299
H         -0.679991306272    0.079410940887   -1.593864282138
H          1.048398037702   -1.299694548972    1.779061662251
    9
 SCF done      -5.19317840
N         -0.193527348940   -0.754067382739   -1.270122075684
C         -0.441830157197   -1.105154170942    0.091312341389
N         -1.535865018993   -1.550902407428    0.541061103671
N         -2.488310906780   -1.877481933064    1.079736342556
O          1.233453291222   -0.464141850376   -1.279269094426
N          1.755285770105   -0.694519679405   -0.061035076477
C          0.848780238266   -1.071067549261    0.751196849098
H         -0.666668347366    0.086529365888   -1.598826958704
H          1.043622357983   -1.297974029173    1.777703750277
    9
 SCF done      -5.22716557
N         -0.193910056194   -0.755226128450   -1.272451345258
C         -0.438772786669   -1.109563031163    0.090912396753
N         -1.533207065662   -1.549265472068    0.546404491275
N         -2.492356635171   -1.871947284227    1.072674871661
O          1.233231351116   -0.464529471243   -1.281131819047
N          1.756849261407   -0.693934187670   -0.061690496490
C          0.849526820614   -1.072621998781    0.749869219523
H         -0.671129962589    0.089522669711   -1.589813096264
H          1.044708951548   -1.301214732409    1.776982959647
    9
 SCF done      -5.23846871
N         -0.194030093021   -0.756638901153   -1.269300013224
C         -0.436966545900   -1.109067692326    0.095188941987
N         -1.533062887801   -1.547241346482    0.548096398563
N         -2.497686845636   -1.868658500247    1.064824714363
O          1.231871485942   -0.462287551686   -1.280591754082
N          1.757359398209   -0.690435241268   -0.061278004117
C          0.851852264392   -1.073208629439    0.750587463158
H         -0.675551920000    0.083941543434   -1.591623380284
H          1.051155022114   -1.305183317033    1.775852815337
    9
 SCF done      -5.23696546
N         -0.193239755200   -0.760734959800   -1.266769731700
C         -0.433813348300   -1.114005475100    0.097926299100
N         -1.531041342500   -1.549809370000    0.550871217000
N         -2.506985538600   -1.856012645100    1.054855029700
O          1.230104340900   -0.453948519100   -1.278955647200
N          1.758458207900   -0.684399523200   -0.061028529800
C          0.855541837800   -1.073412882300    0.751406702400
H         -0.682739668700    0.074778790400   -1.590982990600
H          1.058655145300   -1.311235052200    1.774434832900
    9
 SCF done      -5.22520792
N         -0.191743865000   -0.759197829100   -1.267345312000
C         -0.433427026300   -1.115043541900    0.097471986800
N         -1.537234760500   -1.538484455500    0.546534995200
N         -2.499402999800   -1.865208516300    1.064737104100
O          1.231299204200   -0.454885323500   -1.279015989800
N          1.757278059900   -0.683069535000   -0.058794852900
C          0.852894441900   -1.077221727000    0.750129143700
H         -0.679428233200    0.075987437000   -1.595498703900
H          1.054705057200   -1.311656144900    1.773538810600
    9
 SCF done      -5.24192320
N         -0.193768164100   -0.758990813200   -1.266399679900
C         -0.431303906400   -1.121442326600    0.097505832600
N         -1.533134274100   -1.546054170500    0.549834029200
N         -2.506461736200   -1.859021824000    1.055216053800
O          1.229410716300   -0.456544885100   -1.280502392200
N          1.758231737700   -0.684799498000   -0.061402429300
C          0.855208892200   -1.077285397600    0.749638433000
H         -0.680584104900    0.079004588100   -1.587409031300
H          1.057340717900   -1.303645309500    1.775276365800
    9
 SCF done      -5.24649073
N         -0.193608815400   -0.760102406000   -1.267343257400
C         -0.432503238600   -1.117414976700    0.097507331800
N         -1.532185386700   -1.545320703600    0.551467953800
N         -2.506113351700   -1.859463445400    1.054895520000
O          1.229268498000   -0.455691204100   -1.279688087100
N          1.758512300200   -0.684584566300   -0.060942648300
C          0.854865409900   -1.074122043100    0.750608421800
H         -0.681153762700    0.076767596100   -1.589691972400
H          1.057858225500   -1.308847887100    1.774943919600
    9
 SCF done      -5.24866434
N         -0.193194355400   -0.760207179900   -1.267718622300
C         -0.432046776500   -1.119268262300    0.096951307800
N         -1.533089481000   -1.542292728700    0.552177379000
N         -2.505629321400   -1.860998902800    1.055299601000
O          1.229332226800   -0.455450305300   -1.279898201600
N          1.758558440000   -0.684173188000   -0.060667169200
C          0.854663841400   -1.075078770700    0.750094537300
H         -0.680844345100    0.076949865300   -1.589303045100
H          1.057189649500   -1.308260164000    1.774821394800
    9
 SCF done      -5.25185780
N         -0.192929754300   -0.760702948000   -1.268625556900
C         -0.431338103300   -1.122869193500    0.095449610300
N         -1.533207243000   -1.537343309400    0.555763304500
N         -2.506333869300   -1.863080535100    1.053160054700
O          1.229212599100   -0.455563183900   -1.280314088100
N          1.758819385500   -0.683593013200   -0.060463007900
C          0.854856099600   -1.075270191700    0.749755718300
H         -0.681124082200    0.077306207500   -1.587808229600
H          1.056984846400   -1.307663469200    1.774839376500
    9
 SCF done      -5.25225446
N         -0.192878635900   -0.760813013900   -1.268604566000
C         -0.431348023000   -1.123382180700    0.094951059200
N         -1.533260275000   -1.536505146700    0.556071460600
N         -2.506105418200   -1.863080928400    1.053172516800
O          1.229397468200   -0.455037093800   -1.279976118500
N          1.758650843100   -0.683490834500   -0.060420721000
C          0.854981991100   -1.075468772400    0.749847257000
H         -0.681419982500    0.076937556500   -1.588054102400
H          1.056921910700   -1.307939222500    1.774770396000
    9
 SCF done      -5.25239046
N         -0.193080704500   -0.760670027000   -1.268379275800
C         -0.431368630900   -1.123520903600    0.094895265800
N         -1.533226690900   -1.536402971900    0.556285877500
N         -2.506330560500   -1.863286487600    1.052973087400
O          1.229586401200   -0.455343295400   -1.279954996700
N          1.758509560700   -0.683389006900   -0.060602723900
C          0.855102583600   -1.075337637500    0.749938690200
H         -0.681327597000    0.077086873400   -1.588171106800
H          1.057075516700   -1.307916179700    1.774772364000
    9
 SCF done      -5.25242256
N         -0.193124122200   -0.760741924400   -1.268443530600
C         -0.431312910900   -1.123502565800    0.094876653600
N         -1.533165701800   -1.536467568300    0.556221112900
N         -2.506260572800   -1.863097562000    1.053017882100
O          1.229566101300   -0.455072902400   -1.279803633500
N          1.758530785400   -0.683463335300   -0.060621984300
C          0.855124862000   -1.075422884300    0.749914968200
H         -0.681417792400    0.076948501200   -1.588219573900
H          1.056999229800   -1.307959395000    1.774815287200
