          12
  -21.5585335418585     
 C        -1.039175417       1.959215126       1.264179480
 O        -1.634617271       1.432906151       0.400647239
 C         1.896767928      -1.205870327       0.324741236
 H        -1.316482332       1.935080237       2.413801201
 C         1.215929541      -2.430030907       0.004091273
 H         2.636764030      -1.235573274       0.997184605
 H         1.544487886      -0.374080079      -0.110185532
 O         2.358436552      -2.191946502      -0.643468285
 H         0.383550661      -2.182655771      -0.683936663
 H         0.919729618      -3.235933975       0.697776404
 O         0.032178802       2.722881036       0.925692156
 H         0.085336925       2.789007493      -0.071883127
