          12
  -21.5855174248296     
 C        -0.931889958       1.600899599       1.098383963
 O        -1.872930013       1.490562294       0.352593711
 C         2.550695004      -1.372459078       0.034748116
 H        -0.599730701       0.729403699       1.770401771
 C         1.163611990      -1.506307456      -0.289076674
 H         2.830537028      -0.978654108       1.001261269
 H         3.067117147      -1.092322447      -0.985787157
 O         1.960582491      -2.648878497      -0.112696700
 H         0.737286242      -1.333251042      -1.195243954
 H         0.407205281      -1.483932068       0.524610885
 O        -0.122664966       2.647605581       1.191175480
 H        -0.255028406       3.340477490       0.593420083
