          12
  -21.4778789014407     
 C        -0.450486074       2.206674403       1.505621504
 O        -0.527872963       1.132277240       0.967070667
 C         0.148556080      -1.560145983      -0.408221901
 H        -1.330806851       2.922545057       1.461544787
 C         0.760089059      -1.565928940      -1.763956420
 H        -0.891045214      -1.843635102      -0.262271530
 H         0.447055963      -0.886288615       0.318528976
 O         1.104505350      -2.537461299      -0.735828326
 H         1.359431543      -0.702347051      -1.899340805
 H         0.354501186      -2.139801603      -2.598311781
 O         0.527991020       2.842552242       2.030473795
 H         1.400842547       2.319523752       2.100883490
