          12
  -21.3033597220731     
 C         1.141466775       0.905013883       0.349984178
 O         1.586931185       1.661092607      -0.544584646
 C         1.524715174      -0.612398895       0.578877958
 H         0.573064564       1.475102863       1.146755727
 C         0.447332211      -0.979549025       1.529330082
 H         2.575045337      -0.562617917       0.988916458
 H         1.472979842      -1.163427314      -0.374328272
 O        -0.726041244      -0.620207603       0.740423238
 H         0.482112215      -0.438300800       2.500313207
 H         0.128243460      -2.087520568       1.858146018
 O        -0.498096158       0.269615431      -0.286885710
 H        -0.065588207      -0.302436283      -1.027283445
