          12
  -21.2950795015334     
 C         1.156139180       0.949446667       0.274409519
 O         1.813230145       1.746776318      -0.365170234
 C         1.595936226      -0.530007067       0.528968524
 H         0.165439738       1.487167376       0.841629576
 C         0.427706080      -1.022187258       1.490209198
 H         2.569494484      -0.539014948       0.858079223
 H         1.509627714      -1.123685401      -0.425283135
 O        -0.808250209      -0.413437356       0.972219359
 H         0.802802457      -0.710751872       2.478277282
 H         0.216890808      -2.206807183       1.484078916
 O        -0.671770825       0.002830723      -0.468745532
 H        -0.259699164      -0.697035231      -0.990464373
