          12
  -21.4689219167704     
 C         0.724006517       1.707799545       1.660497811
 O         0.488342670       1.406912652       2.807410901
 C        -0.023520386      -1.986173636       0.053681593
 H         1.148644979       1.006261130       1.034882497
 C         0.291880731      -1.439780784      -1.274472711
 H        -0.869164722      -2.650314576       0.361747574
 H         0.750036963      -2.597647231       0.563628226
 O         0.893266847      -2.490399270      -1.860403725
 H         1.071055682      -0.551440500      -1.180670059
 H        -0.627226274      -1.081563918      -1.782679563
 O         0.702869693       2.938552961       1.102887844
 H         0.316765063       3.471543706       0.334758108
