          12
  -21.5066633039267     
 C         0.619930843       1.657693687       1.829271541
 O        -0.468893967       1.736388250       1.532273155
 C         0.998846798      -2.168919337      -0.864582758
 H         0.876436440       1.076788961       2.895061100
 C         0.156851769      -0.800686191      -0.467326735
 H         1.474249684      -2.707116548      -0.057841618
 H         1.764144342      -2.049932707      -1.786736053
 O        -0.175755812      -2.200350449      -1.112633334
 H        -0.098286770       0.035835386      -1.118931237
 H        -0.179841728      -0.609975928       0.640664696
 O         1.662114789       1.945050654       1.344952466
 H         1.669764604       2.562033078       0.484905340
