          12
  -21.5279896607034     
 C        -0.011055844       1.977158229       1.489532776
 O         0.806354679       2.800256301       1.482195528
 C         0.726212669      -2.240660293      -0.406724674
 H        -0.903808293       1.869067381       0.965561624
 C         1.345351395      -1.116580559      -1.230604304
 H        -0.140295827      -2.029165226       0.034567429
 H         1.030135000      -3.267178322      -0.457440773
 O         0.506759657      -2.225016910      -1.812979425
 H         2.479905440      -1.056943505      -1.277101759
 H         0.764213950      -0.165031241      -1.092430679
 O        -0.304105796       1.130881855       2.537012069
 H         0.610218897       1.543915607       3.176187309
