          12
  -21.4895762974503     
 C        -0.046162229       1.353185744       1.140374663
 O         0.894699693       0.750591845       1.184556747
 C         1.836934973      -1.386743290      -0.317588276
 H        -0.576332572       2.152465735       0.354612066
 C         0.813834223      -1.427032039      -1.487245845
 H         2.877279204      -0.917937476      -0.493615690
 H         1.756112919      -2.308533074       0.474572957
 O         0.856084695      -0.340970686      -0.523708825
 H        -0.028843373      -2.082387686      -1.241371632
 H         0.621601628      -0.908961976      -2.347710756
 O        -1.115854950       1.400512035       2.126644339
 H        -1.112773629       0.627129617       3.020149291
