          12
  -21.5646938962448     
 C         0.064594905       1.976900296       0.596819677
 O        -0.634351757       0.969490158       0.381032425
 C         0.818515235      -2.152206539       0.466916093
 H         0.926593077       2.205566913       0.007228309
 C         0.964718230      -1.689620777      -0.807760358
 H         1.009739254      -3.228852872       0.672567969
 H         0.528451423      -1.706932806       1.456314316
 O         2.075741685      -1.780851983       0.075674101
 H         0.554958485      -0.607714666      -0.897684859
 H         0.644493363      -2.255632363      -1.780981160
 O        -0.234723226       2.918086344       1.481640285
 H        -1.188563691       2.624244678       1.929614652
