          12
  -21.5509276973177     
 C        -0.504417347       2.141083712       0.554916999
 O         0.401734495       1.783025700      -0.220518780
 C         0.724607370      -2.038184232       0.608098047
 H        -1.549553310       2.419426958       0.415894593
 C         0.846855392      -2.239529215      -0.779797291
 H         0.574332175      -2.899127397       1.227730482
 H         0.106731407      -1.250129649       1.077966821
 O         1.923070863      -1.786322769       0.066111209
 H         0.885569847      -1.586210519      -1.475807577
 H         0.999594517      -3.127014200      -1.208806334
 O        -0.419536977       2.459184943       1.869473580
 H         0.521387604       2.420656345       2.406842502
