          12
  -21.5454941101356     
 C        -1.101028505       1.590980112       0.425833807
 O        -2.266803305       1.664004224       0.803313193
 C        -0.575519753       0.510484663      -0.478957519
 H        -0.487133225       2.478723528       0.655624679
 C         0.622685231      -0.287951641      -0.001399729
 H        -0.186942897       0.855544556      -1.442009286
 H        -1.273478306      -0.298641472      -0.716868235
 O         0.369906889      -1.263489228       1.009504749
 H         1.214101468       0.373728624       0.641796699
 H         1.164408071      -0.802347751      -0.802756577
 O        -0.348905790      -2.393769458       0.441459427
 H         0.296758982      -2.821194743      -0.150610180
