          12
  -21.5205517066762     
 C         0.776056176       2.010597841      -1.119093490
 O         0.972200149       0.953125539      -0.637153488
 C        -0.423051851      -1.192179362       2.199780176
 H         1.297993544       2.940144776      -0.648235473
 C         0.962098927      -1.689813051       2.108910187
 H        -0.722561038      -0.369340302       2.859056601
 H        -1.235136731      -1.818771702       1.848890309
 O         0.443611066      -0.763014177       1.198894381
 H         1.103319074      -2.696001227       1.760273485
 H         1.753149764      -1.409282085       2.764514318
 O         0.298889837       2.419809059      -2.234368685
 H         0.100445943       1.777688835      -2.981220365
