          12
  -21.4507624261462     
 C        -1.647502471       0.043664720      -1.768044912
 O        -2.423913038       0.923156249      -1.487944546
 C         1.575081822       0.893430556       1.568180464
 H        -1.838805129      -0.725565743      -2.616700554
 C         2.128132004      -0.208616576       0.720045411
 H         0.743798067       0.552017086       2.299041683
 H         1.805463128       1.969793972       1.590544220
 O         2.819521157       0.192320481       1.964059453
 H         2.769017292       0.080290715      -0.078658306
 H         1.649421843      -1.257230333       0.693137904
 O        -0.416077718      -0.084988424      -1.188680822
 H        -0.253224794       0.523848441      -0.482899800
