          12
  -21.4402634734354     
 C        -0.671255966      -1.051501895      -1.432519051
 O        -1.057405799      -2.180043980      -1.392181352
 C         1.828632611       1.033352098       1.319519721
 H        -0.299581817      -0.410433963      -2.248943177
 C         1.449725204       1.943408703       0.211800626
 H         2.447148964       1.463669945       2.115279342
 H         1.784335369      -0.060865831       1.272211949
 O         0.579731164       1.777033216       1.212423645
 H         1.161213330       1.370735812      -0.690571285
 H         1.801196158       2.931131710       0.129584393
 O        -0.481957203      -0.179805593      -0.428466717
 H        -0.869127455      -0.144448885       0.501746758
