          12
  -21.5211867946363     
 C         0.620452799       0.431065573       1.141334181
 O        -0.055175015       1.027022808       0.001340720
 C         1.007031743      -1.126838994       0.791445742
 H         1.489310501       1.101083029       1.281903083
 C         1.330994764      -0.759835414      -0.663085452
 H         0.297808004      -2.020122624       0.706128154
 H         1.917710187      -1.331101424       1.365691577
 O         1.174270780       0.636807758      -0.925528263
 H         0.853045986      -1.558494210      -1.378417499
 H         2.347447471      -0.731804012      -1.041041838
 O        -0.093009158       0.915060163       2.234140618
 H        -1.053249660       0.670444860       2.281661325
