          12
  -21.4568674755131     
 C        -0.948797846       1.607875713       1.738378128
 O        -1.932368304       1.120334792       2.170282073
 C         1.397642551      -0.478391235      -1.573547842
 H        -0.989744295       2.651511600       1.829023997
 C         2.037815408      -0.870826776      -0.358691740
 H         1.646859991       0.517758248      -1.922123685
 H         0.564591689      -1.080926008      -2.074505634
 O         2.929021338      -1.763263668      -0.913143171
 H         1.524426663      -1.251663299       0.511875356
 H         2.759409247      -0.106659188       0.067724859
 O         0.284308276       1.214901659       1.487520341
 H         1.037293209       1.212547659       2.150973041
