          12
  -21.4866736543581     
 C        -0.663701617       1.865378747       1.663786825
 O         0.140265826       1.748867840       2.460259076
 C         1.733560563      -1.142843103      -0.071641821
 H        -1.142148225       2.888742223       1.300364930
 C         1.626217342      -1.160435401      -1.536286154
 H         1.979141621      -1.981199243       0.776784759
 H         1.592035251      -0.215310219       0.489079012
 O         2.728531709      -1.171086911      -0.817071761
 H         1.304476799      -0.314411577      -2.398361002
 H         1.130313839      -2.207366257      -1.976595459
 O        -1.406354673       0.945569160       1.144663750
 H        -1.302553213       0.200210713       0.585736047
