          12
  -21.4731786502901     
 C        -0.425489431       1.169047020       1.688646126
 O         0.109270670       2.146805134       1.679472822
 C         1.625918386      -1.695088444      -0.345555863
 H        -0.114943467       0.188537016       1.095224584
 C         1.592556429      -0.538680390      -1.299245206
 H         1.574468336      -2.624038670      -0.779470141
 H         1.180541645      -1.183099652       0.420936293
 O         2.993276750      -1.083265730      -0.829739986
 H         1.806897024       0.318128536      -0.777384221
 H         1.478142442      -0.793759044      -2.310391009
 O        -1.769597552       1.191519769       1.852717365
 H        -2.074690606       0.314207555       1.757248069
