          12
  -21.5691934363385     
 C        -0.419909373       2.198519457       0.221811774
 O        -1.053479803       1.471498108      -0.540918210
 C         2.021221263      -2.126581305       0.448240114
 H        -0.260623231       3.301533298       0.113228157
 C         1.054861254      -1.218153207      -0.189822947
 H         2.884739918      -2.103988345      -0.136901503
 H         1.511323140      -2.984267399       0.740887810
 O         1.799032618      -0.869495916       1.099800824
 H        -0.027339447      -1.157189932      -0.118644593
 H         1.532222619      -0.610728195      -0.914785696
 O        -0.005302971       1.880230972       1.389047179
 H         0.342695356       0.935771786       1.290019268
