          12
  -21.5100358564234     
 C         0.679059810       2.480566454      -1.346117202
 O         1.268997356       1.744501926      -0.631158033
 C        -0.121594502      -1.440583966       2.841540085
 H        -0.094618490       3.193418733      -0.979337716
 C         0.845718624      -2.048503252       1.956479743
 H         0.265773605      -0.534573847       3.367007398
 H        -1.065571961      -1.823526896       2.908237159
 O        -0.159681601      -1.211042700       1.465145298
 H         0.768431060      -3.079122815       1.585458576
 H         1.754165082      -1.438933606       1.976072287
 O         0.484494737       2.246993905      -2.719655610
 H         1.167977223       1.536284244      -3.050891802
