          12
  -21.5672684858205     
 C         2.948562162      -0.472540710       0.211820151
 O         1.824425998      -1.058780838      -0.217773196
 C        -1.666227871       0.523951998       0.187532827
 H         3.181543130      -0.734916443       1.265123367
 C        -2.040385040       0.508957180       1.561265611
 H        -1.858208403       1.319569842      -0.412201161
 H        -1.231408607      -0.207446764      -0.405524939
 O         3.474707469       0.259917452      -0.565274621
 H        -2.184248673      -0.190673234       2.362552185
 H        -2.417506795       1.479211116       1.789024053
 O        -0.736481336       0.839533716       1.169480191
 H         1.854354750      -0.844365579      -1.159982549
