          12
  -21.5541618651767     
 C        -0.029956495       0.739945088      -2.340023562
 O        -0.310975234       0.474584029      -1.036646687
 C         1.583277365      -0.796453437       2.464740124
 H        -0.142783813       1.801935329      -2.506280964
 C         0.800005005       0.299260737       3.029801473
 H         1.464762398      -1.768272619       2.658588163
 H         2.516718144      -0.555055154       1.869116100
 O         0.131954674      -0.049191448      -3.228102312
 H         1.306933830       1.316845305       2.923379972
 H        -0.164278388       0.197621591       3.545828241
 O         0.478279763      -0.246697027       1.767177867
 H        -0.197011059      -0.452947057      -0.704819892
