          12
  -21.5582108180983     
 C         0.012338314       0.743517425      -2.163154531
 O         0.823433667       0.606822529      -1.144065447
 C         1.420616444      -0.713922820       2.280691692
 H         0.076039155       1.753857936      -2.537943363
 C         0.381311052       0.157776020       2.777498812
 H         1.329782691      -1.790723284       2.564311386
 H         2.454647002      -0.352312270       2.220442571
 O        -0.580877140      -0.189297060      -2.623724214
 H         0.309596255       1.210555574       3.087727762
 H        -0.371337199      -0.402802865       3.393043839
 O         0.487613436      -0.146331703       1.404698352
 H         0.636841589      -0.258091899      -0.741189893
