          12
  -21.5551028538411     
 C         0.918516990       1.492990745      -1.734448163
 O         0.707187544       2.721001254      -1.218661941
 C         0.966193852      -2.030794494       2.144891842
 H         1.989146224       1.132065176      -1.443283490
 C        -0.442007271      -1.707001657       2.448175663
 H         1.365790820      -2.753169551       1.480765699
 H         1.572434507      -1.405900802       2.810913436
 O         0.228873118       0.858873893      -2.499953454
 H        -0.610249025      -0.997042724       3.276468943
 H        -1.151117372      -2.412920619       2.026568674
 O         0.230252459      -1.005111380       1.425778975
 H        -0.219229462       3.036796876      -1.330767881
