          12
  -21.5590047493620     
 C         1.081049043       1.998320071      -1.211887715
 O         0.371161414       2.105766815      -2.366474211
 C         0.715063823      -2.159441695       1.308850222
 H         2.000932806       2.581691233      -1.327627700
 C        -0.309778546      -1.681665988       2.287300766
 H         0.478647139      -3.102285442       0.752590081
 H         1.783624166      -1.908287671       1.504409140
 O         0.910370447       1.280905595      -0.254395456
 H        -0.056713566      -1.109394154       3.215029346
 H        -1.360166295      -2.159233937       2.269272104
 O        -0.080258980      -1.025970351       1.031046976
 H        -0.441990364       1.574871340      -2.436407686
