          12
  -21.5005027897771     
 C         1.526278688       2.724069231       0.141520480
 O         2.307800780       2.125938557       1.128454774
 C        -0.796286967      -2.621647273       0.806033471
 H         0.561257815       3.094518884       0.438631920
 C        -1.622924855      -2.768163131      -0.393213556
 H         0.092162827      -3.258751476       0.705390851
 H        -1.227363172      -2.576531608       1.789855364
 O         1.951855717       2.811147758      -1.002774789
 H        -2.614558560      -2.343817101      -0.370081248
 H        -1.112783454      -3.159041060      -1.204075535
 O        -0.879692759      -1.588284412      -0.109720375
 H         2.944117370       1.834445310       0.364092141
