          12
  -21.3939273029521     
 C         1.085451548       0.381549145       0.659703699
 O         1.172593933       1.859679387       0.690790250
 C        -0.564831185      -0.014880410       0.674713886
 H         1.464796003      -0.118351184       1.567054293
 C        -1.771636971      -0.362247246       1.441404411
 H        -0.489432158      -0.849697969      -0.110909876
 H        -0.770983107       0.982776887       0.373411279
 O         1.673626356      -0.059611751      -0.582020273
 H        -2.340251841      -1.288153056       1.134374977
 H        -2.389877326       0.445984859       1.908630688
 O         2.269347712      -1.336549873      -0.231623696
 H         1.253782573       1.958078623      -0.197741816
