          12
  -21.4135672435609     
 C         1.644319795      -0.194284843       0.837691056
 O         1.996342287       0.931171204       1.647944646
 C        -1.947202234       1.539297204       0.162885173
 H         0.535765734      -0.403362190       0.800266440
 C        -2.571537951       0.373991399       0.651675009
 H        -1.833192963       1.715589008      -0.867185476
 H        -1.311355662       2.221140069       0.717097582
 O         2.498336287      -0.737710352       0.103791363
 H        -2.628515226       0.237431989       1.782794363
 H        -3.400316213      -0.159166003       0.039104380
 O         2.319951873      -1.569532789      -0.942518714
 H         1.515878298       1.936207403       1.481549714
