          12
  -21.4274016538441     
 C         2.400402390       0.444625981       0.361844532
 O         2.321228125       1.502843014      -0.370516751
 C        -2.691244978       0.417898885       0.524468849
 H         2.865242432       0.614748933       1.299036051
 C        -2.328651191       0.570792554       1.706262084
 H        -2.489928097      -0.526881556      -0.133021315
 H        -3.124367275       1.369038508      -0.066173222
 O         1.815359468      -0.681831796      -0.001902216
 H        -2.476747239       1.474119933       2.244370889
 H        -1.825183625      -0.111251520       2.408166654
 O         2.199323995      -1.867092677       0.407240902
 H         2.450359476       1.580510802      -1.366073155
