          12
  -21.5056365656584     
 C         2.325799477      -0.773894799       0.093352713
 O         2.980149490      -0.736573485      -1.147734861
 C        -0.448312658       1.984964346       1.227744319
 H         2.840591484       0.074095948       0.593300060
 C        -1.851746886       0.634352792       1.272685961
 H         0.305101958       1.679510472       1.943362647
 H        -0.440306691       3.004652892       1.022185852
 O         1.441383513      -1.506218857       0.502983146
 H        -2.834416323       1.086477744       1.274227819
 H        -1.974332779      -0.340420010       1.853615669
 O        -0.723241556       0.862328088       0.420697694
 H         2.615372214      -1.335343986      -1.849394963
