          12
  -21.5467768016314     
 C         2.130276407      -1.128802226      -0.367254483
 O         2.177877254      -2.149411693       0.434601149
 C        -1.817070092       1.112258560       0.565811445
 H         1.233161723      -1.177358726      -0.930400942
 C        -0.578854747       1.629574037       0.365184752
 H        -1.854874803       0.029462841       0.601744930
 H        -2.906849278       1.278890854       0.874662393
 O         2.911990150      -0.230782636      -0.532069132
 H        -0.498660719       2.585892480      -0.064258309
 H         0.008057787       0.848127580      -0.065336918
 O        -1.011253029       1.523292016       1.802967819
 H         2.756886730      -1.946218353       1.110680731
