          12
  -21.5566265579625     
 C         2.302853712      -1.367370446      -0.686270270
 O         2.647817357      -2.161553515       0.291705866
 C        -1.910415117       1.273598095       0.540235667
 H         1.845873432      -1.871467970      -1.484584244
 C        -0.766322315       0.862164801       1.353715660
 H        -3.053577737       1.116401574       0.524886985
 H        -1.719957472       1.340789432      -0.510442755
 O         2.608243675      -0.157592652      -0.700247798
 H         0.356328696       0.915465445       1.168821264
 H        -0.853151608       0.557324951       2.510932182
 O        -1.241680544       2.231681141       1.456308467
 H         3.138205930      -1.380126193       0.730623148
