9
 SCF done        -20.867221602324          0.000177977491
N          -0.81074758307256    0.58864290376637   -0.29900550865853
C          -0.21134863931670   -0.48638439377972   -0.05420326235433
N          -0.77842255367550   -1.77338042114673   -0.37783026805000
N          -1.71030714569514   -2.22855364882736   -0.84084581580975
O           0.58370501640961   -2.79385244889309    0.23197424344546
N           1.41193499115323   -1.93746762698637    0.66447573987375
C           1.07392975810979   -0.69754714456019    0.55364214244609
H          -1.72420285550522    0.51367361518288   -0.74058272326652
H           1.71953617459250    0.08513845424420    0.89543174637383
