          12
  -21.4038789799350     
 C         0.393012883       1.302234787      -0.194724700
 O        -0.687243712       1.749787400       0.014077646
 C         1.316930788       0.920006715       0.912770952
 H         0.799008654       0.944822547      -1.253746168
 C         1.946223844      -0.536035283       0.912759931
 H         0.605348193       0.915969772       1.797626824
 H         1.813091294       1.875264372       1.068085843
 O         0.737061344      -1.148147617       1.190301160
 H         2.691142272      -0.632202983       1.690413023
 H         2.373472568      -0.711560445      -0.037724884
 O         0.238759790      -1.149106805      -0.135186490
 H        -0.529684038      -0.552706125      -0.260636297
