          12
  -21.2718919673432     
 C         0.489841716       1.300098059       0.352988132
 O        -0.129229093       2.081441992       1.047423654
 C        -0.328729194      -0.012503191      -0.158894284
 H         1.512279409       1.499737006      -0.136546196
 C         0.695619665      -1.019352288      -0.650780978
 H        -1.018421050       0.197842285      -0.957485841
 H        -0.859031168      -0.358793013       0.751817309
 O         1.648065480      -0.988223658       0.553823560
 H         1.096627539      -0.885171440      -1.627232017
 H         0.222397339      -2.147366262      -0.736992054
 O         1.381139361       0.139693367       1.405210673
 H         0.450356640       0.149574707       1.958577680
