          12
  -21.2104805456228     
 C         0.450533102       1.302789650       0.267226697
 O        -0.054812653       2.255423259       0.796340313
 C        -0.381354274      -0.052506889      -0.010525825
 H         1.479788690       1.358202465      -0.235323225
 C         0.733376359      -0.872525513      -0.559827471
 H        -1.388404501       0.203318490      -0.299984394
 H        -0.504135257      -0.800943318       0.805399535
 O         1.698576270      -0.907438398       0.376345869
 H         1.157033103      -0.537509924      -1.492717670
 H         0.372468372      -1.990447277      -0.848694171
 O         1.264046213      -0.091796453       1.624042059
 H         0.550147964      -0.620694163       2.079025288
