          12
  -21.3557564254244     
 C         0.867656568       1.719174855       2.185134395
 O         1.042846657       2.696561824       1.601469396
 C         0.431505106       0.820967812       2.899191168
 H         0.114498822       0.960204542      -1.195012826
 C         0.513042285      -2.777881091      -0.689239760
 H         1.611141415       0.802238628       3.131428837
 H         0.465103702      -0.188621970       2.849146713
 O        -0.634519325      -2.973846699      -0.983662662
 H         0.669280644      -3.029554493       0.424914438
 H         1.511841370      -2.749367105      -1.213207315
 O         1.097515590       2.008638994      -1.701106079
 H         1.600260790       1.235041917      -1.303379525
