9
 SCF done        -20.833077130101          0.000213463158
N          -1.42930679610664   -0.80962791514244    0.78285517050747
C          -0.66446497125820   -1.24745776482405   -0.15407294325950
N          -1.14445557718102   -1.35645565884068   -1.39855744591503
N          -1.77155051023566   -1.21832439335622   -2.33741892462919
O           2.45243468364348   -1.66726703225718    1.49081784039130
N           1.37532093964771   -1.33908460746564    1.03074909103759
C           0.67845868632759   -1.73642054369399    0.03726629628821
H          -2.37941644947081   -0.56156130618861    0.53693813686187
H           1.08771455563356   -2.36105287123117   -0.75860027528269
