9
 SCF done        -20.867221393174          0.000418820485
N          -0.75709751546910    0.53979695245471   -0.52772592713894
C          -0.16448293169470   -0.50359544904450   -0.16016603929904
N          -0.69468094198778   -1.82015684935358   -0.42060892133514
N          -1.58791854643705   -2.32348015803866   -0.90939556235142
O           0.63110748155939   -2.76951713794777    0.36003107290829
N           1.41844135865960   -1.86946326278667    0.78057724005030
C           1.07706484534097   -0.64722082042838    0.54935795217140
H          -1.63684492182647    0.41700908553496   -1.02327354526867
H           1.68906005685516    0.16985813060990    0.87249298526320
