    9
 SCF done       0.00000000
N         -0.757118276918    0.539012720546   -0.529183923542
C         -0.162878091911   -0.502350919457   -0.159602183841
N         -0.695072587276   -1.820934401894   -0.420557797034
N         -1.589151078145   -2.324694441436   -0.906695551121
O          0.631054381903   -2.770923689685    0.358160284224
N          1.419794898893   -1.869781516115    0.780937352057
C          1.076958208939   -0.648700277726    0.549939639944
H         -1.635938389413    0.417752035505   -1.024490569073
H          1.688425262027    0.168655619261    0.873813026087
    9
 SCF done      -0.00057965
N         -0.756867098038    0.539514457726   -0.528722839963
C         -0.165192743592   -0.502598373132   -0.157560251347
N         -0.693777255751   -1.821033956810   -0.422645568641
N         -1.587909961759   -2.325101611086   -0.908170440151
O          0.629906511776   -2.770899171702    0.362558233383
N          1.420355653202   -1.870154848415    0.779016075608
C          1.077129371189   -0.648498177910    0.548758714017
H         -1.636580257352    0.418613822515   -1.024009428004
H          1.689010108225    0.168192988015    0.873095782798
    9
 SCF done       0.01187174
N         -0.754553057946    0.539965739100   -0.531185634638
C         -0.168512640412   -0.503328344002   -0.154311016642
N         -0.694505456673   -1.821194389083   -0.422400059915
N         -1.591722996794   -2.325430796705   -0.902306076476
O          0.634045191340   -2.771467831332    0.359616100901
N          1.422865739018   -1.870421149805    0.773945089702
C          1.076050912734   -0.648023784017    0.549560979004
H         -1.633782785300    0.419747633302   -1.028944060555
H          1.686189422031    0.168188051643    0.878344956318
    9
 SCF done       0.04711823
N         -0.747576885364    0.539852821043   -0.539658777959
C         -0.172055699969   -0.506239428304   -0.151138170562
N         -0.699968996900   -1.820928522715   -0.417208261109
N         -1.607507435821   -2.325005804970   -0.875885538354
O          0.652674047350   -2.772667874736    0.333469182749
N          1.426513899111   -1.870266111057    0.766085187793
C          1.070450692543   -0.647333373403    0.557544252128
H         -1.621805976840    0.420863995845   -1.046117813028
H          1.675350683889    0.169759427397    0.895230216142
    9
 SCF done       0.87504237
N         -0.735927147301    0.542816278985   -0.556506904420
C         -0.169422337329   -0.508206953680   -0.153115525492
N         -0.700052899508   -1.816382331333   -0.429558213908
N         -1.637294916814   -2.333242910080   -0.812794654007
O          0.680370108844   -2.781029386939    0.292053306937
N          1.436568065101   -1.873112734767    0.754005482185
C          1.061801781151   -0.650002984774    0.570926361780
H         -1.605651136050    0.431977325178   -1.070465570098
H          1.645682809706    0.175218826410    0.927775994723
    9
 SCF done       0.32871185
N         -0.744949349297    0.540512076086   -0.543482509708
C         -0.165477481751   -0.508271694417   -0.157993499794
N         -0.697866863506   -1.818194293484   -0.425765464122
N         -1.619179327860   -2.327234023855   -0.851817787283
O          0.661677949743   -2.775197453771    0.317218701571
N          1.427640326467   -1.871174973259    0.767434627677
C          1.067185334722   -0.649160745025    0.563694446969
H         -1.616696338458    0.423775805676   -1.050865237798
H          1.663740077841    0.172980431047    0.903897000288
    9
 SCF done       0.40190076
N         -0.744136722746    0.540808076414   -0.544491382630
C         -0.165398109848   -0.508531520600   -0.157593491849
N         -0.697907021791   -1.818064677977   -0.426573541413
N         -1.622310267083   -2.327566968171   -0.845322318791
O          0.664368424822   -2.775623020565    0.312352986764
N          1.428903828132   -1.871671002198    0.765883041433
C          1.066187203915   -0.649532651593    0.565376643860
H         -1.614482479723    0.424388203204   -1.054358157487
H          1.660849472223    0.173828690486    0.907046498112
    9
 SCF done       1.88149801
N         -0.729349943939    0.548231213649   -0.564414422849
C         -0.172339085656   -0.508407126576   -0.148425332585
N         -0.706157942132   -1.816699827771   -0.426529209939
N         -1.662283053919   -2.339781527383   -0.748769556168
O          0.704205789402   -2.779180204177    0.240571055738
N          1.449744613648   -1.878913856989    0.731299748564
C          1.052352033225   -0.653510639950    0.584980914272
H         -1.579736221305    0.435465530825   -1.110815353688
H          1.619638138576    0.180831567472    0.964422434555
    9
 SCF done       3.33581072
N         -0.712897799444    0.556952513481   -0.587061910303
C         -0.177915462956   -0.505779316579   -0.151805681656
N         -0.717111567176   -1.817121053598   -0.419637098906
N         -1.691153880561   -2.352768422507   -0.662516930404
O          0.739339602888   -2.782297523157    0.181362822194
N          1.465013412426   -1.881454922743    0.696829707215
C          1.042187093192   -0.655565848956    0.593363172947
H         -1.556679868561    0.446657456674   -1.154201464268
H          1.585292798291    0.179412246484    1.025987660980
    9
 SCF done       4.77127540
N         -0.692909874494    0.562343597282   -0.620286725916
C         -0.189396646711   -0.501304549563   -0.146600841862
N         -0.727316319650   -1.820660398976   -0.406312222453
N         -1.711770830428   -2.369001268006   -0.575585568311
O          0.777694071037   -2.773558570104    0.107103462998
N          1.465494827428   -1.881136797063    0.677373262749
C          1.028624693756   -0.655274007817    0.608751054197
H         -1.532725782770    0.460244195189   -1.190758265373
H          1.558380189933    0.166382928160    1.068636121669
    9
 SCF done       9.04354892
N         -0.661295069710    0.557858613059   -0.668639242104
C         -0.205325120681   -0.495346488102   -0.136817865978
N         -0.756443212546   -1.811798316047   -0.370002252633
N         -1.735331109083   -2.392695361472   -0.411088027557
O          0.812043215953   -2.727774744231   -0.031006310429
N          1.482080730250   -1.868377089254    0.611244514063
C          1.003303972614   -0.663613730649    0.637588920480
H         -1.463343803281    0.455083475418   -1.282675867252
H          1.500384724483    0.134698770578    1.173716409409
    9
 SCF done       8.92533649
N         -0.661986372113    0.552366928141   -0.672502771568
C         -0.204323023577   -0.496215376458   -0.135050913874
N         -0.757039681498   -1.808005597959   -0.388623506565
N         -1.734425528898   -2.392209150032   -0.399073461346
O          0.814016818979   -2.742896882914   -0.026045082377
N          1.498900938024   -1.866454928335    0.590691204356
C          1.008831215427   -0.662072579960    0.626727220594
H         -1.477231133073    0.466691672110   -1.273606248546
H          1.489331094629    0.136831044608    1.199803837124
    9
 SCF done       7.73867954
N         -0.667844942531    0.551463123320   -0.662717338680
C         -0.205179612825   -0.499000485737   -0.128716788743
N         -0.751405181912   -1.818482422222   -0.391807174633
N         -1.741169463353   -2.377211239455   -0.447434360074
O          0.823861642286   -2.759245754735   -0.010188143658
N          1.496279983832   -1.877080669195    0.614124915576
C          1.015146547050   -0.655328698052    0.626264869848
H         -1.498901042777    0.468503507245   -1.246146765025
H          1.505286398229    0.154417767932    1.168941063289
    9
 SCF done       8.03652100
N         -0.677576434161    0.557499112281   -0.635101665086
C         -0.196592868094   -0.502091559791   -0.140517187768
N         -0.749275867872   -1.812246659361   -0.396835250828
N         -1.735575749514   -2.382738085294   -0.443556812174
O          0.822099031748   -2.749953688514   -0.016579904512
N          1.479207656807   -1.874630652240    0.634932591795
C          1.009231481843   -0.659599015452    0.630898120925
H         -1.485623857731    0.460548558840   -1.253873171404
H          1.510180934874    0.151247118631    1.142953556851
    9
 SCF done       8.89682576
N         -0.666552685139    0.557874732180   -0.658398119993
C         -0.199473359939   -0.500480589171   -0.142110260196
N         -0.752929231358   -1.812838842293   -0.398496544707
N         -1.733870643208   -2.392466442492   -0.411900599850
O          0.821982806152   -2.749752901861   -0.021080024938
N          1.492228406242   -1.873408458388    0.609761523788
C          1.009620258372   -0.660968504618    0.624013955366
H         -1.486432388226    0.474747818519   -1.255450009422
H          1.491501165004    0.145328317324    1.175980357752
    9
 SCF done       9.03589293
N         -0.662955020735    0.556442871497   -0.664873325649
C         -0.202950153509   -0.498576474000   -0.137864925216
N         -0.756830160258   -1.811257973744   -0.399531123609
N         -1.735970953252   -2.394285923331   -0.397215838076
O          0.830018564251   -2.750972480728   -0.037225857150
N          1.496029950507   -1.876413742352    0.604378350589
C          1.008761208965   -0.659347205866    0.628604733509
H         -1.486561217283    0.477106306299   -1.260389954456
H          1.486532109313    0.145339751325    1.186438217657
    9
 SCF done      10.23515897
N         -0.655077775629    0.557781792070   -0.676348703328
C         -0.208661238461   -0.495611784892   -0.136327373264
N         -0.765698384373   -1.809467948544   -0.391331814262
N         -1.737119002785   -2.403000025400   -0.349713003747
O          0.847262651748   -2.742406422192   -0.083063756224
N          1.496551281580   -1.875408396876    0.590577570361
C          1.002240224464   -0.661535204006    0.633353366982
H         -1.473848933504    0.480991465305   -1.280128364246
H          1.470425504960    0.136691653633    1.215302355427
    9
 SCF done      13.00714242
N         -0.640815626561    0.562630195198   -0.692694430320
C         -0.217649133420   -0.491062108070   -0.137712344608
N         -0.783440559535   -1.802657286336   -0.374477534893
N         -1.727203082310   -2.428814362463   -0.252075240744
O          0.866363095284   -2.715124092120   -0.162040353244
N          1.502207537529   -1.872153054532    0.555849421375
C          0.986757614640   -0.670092079319    0.645777036362
H         -1.441337521669    0.492074360092   -1.323133161665
H          1.431192004042    0.113233556851    1.262826885437
    9
 SCF done      13.11911537
N         -0.637925718865    0.563559306823   -0.699577860195
C         -0.215469861323   -0.489419424884   -0.144555988197
N         -0.784764853101   -1.798844963090   -0.380503347277
N         -1.722028169903   -2.431823473773   -0.234324368200
O          0.869498616510   -2.715697522230   -0.171401367468
N          1.501112745275   -1.872988947877    0.556293721973
C          0.988810923223   -0.671575188985    0.640421946257
H         -1.444058567749    0.495912159537   -1.323951751058
H          1.420899213832    0.108913183678    1.279919291964
    9
 SCF done      13.96709434
N         -0.627595834935    0.564132774970   -0.714509146935
C         -0.220968632157   -0.487057031142   -0.143511604058
N         -0.792292732237   -1.796345094145   -0.374540517790
N         -1.715001741350   -2.442304159623   -0.200013089129
O          0.875731788877   -2.707391672303   -0.198843379895
N          1.504476989231   -1.872338404629    0.543589107185
C          0.984034540452   -0.673965318803    0.644970054321
H         -1.436356457899    0.503471251230   -1.335635281849
H          1.404046407917    0.099832783445    1.300814135749
    9
 SCF done      16.60386056
N         -0.604767983981    0.567032669418   -0.740641354617
C         -0.233116143540   -0.483794532697   -0.147266915356
N         -0.813591429925   -1.788486081922   -0.354925598396
N         -1.688885119725   -2.473544832779   -0.112589205399
O          0.887623423503   -2.676603800792   -0.270919845945
N          1.505515054320   -1.870843961067    0.513620527355
C          0.969933724977   -0.682517799296    0.655111469873
H         -1.405778310021    0.519892471199   -1.367094911531
H          1.359141112292    0.076900997135    1.347026111618
    9
 SCF done      16.48231425
N         -0.606664230444    0.569995213658   -0.736122574751
C         -0.230750559253   -0.482956351124   -0.156634731157
N         -0.808188465109   -1.789974597024   -0.364401948019
N         -1.682109698847   -2.475685856587   -0.105998109284
O          0.887163973659   -2.682312920538   -0.265194836410
N          1.500593178248   -1.872878730096    0.516660645341
C          0.971143294017   -0.679660166689    0.645558017482
H         -1.409033535269    0.523747481182   -1.359393719334
H          1.353920370996    0.077761056319    1.347847533932
    9
 SCF done      16.81158317
N         -0.601016943497    0.568640179703   -0.743099718328
C         -0.230337530347   -0.482141182643   -0.164325118601
N         -0.809299068314   -1.789938201396   -0.365841690730
N         -1.674550481836   -2.479229175927   -0.087758086828
O          0.886988383702   -2.678459978723   -0.273137506186
N          1.499426369503   -1.869054475414    0.513504100274
C          0.969427446301   -0.679812487084    0.642619786963
H         -1.409196302357    0.527044026004   -1.359342950833
H          1.344632454844    0.070986424881    1.359701461968
    9
 SCF done      17.39515500
N         -0.593723365661    0.566372502993   -0.752298340294
C         -0.233546230294   -0.480838281422   -0.166881007853
N         -0.812664310946   -1.790345805122   -0.361744662404
N         -1.664804915888   -2.485242219137   -0.063671282476
O          0.885733868811   -2.667361410646   -0.290528881479
N          1.496756120155   -1.865015167619    0.506580486547
C          0.966712425722   -0.680016085146    0.642970128639
H         -1.403711662004    0.528110677127   -1.365803645629
H          1.335322398004    0.062370918172    1.373697482649
    9
 SCF done      17.29832673
N         -0.607694787240    0.566853635613   -0.749574170871
C         -0.228838911592   -0.483107064776   -0.174145605342
N         -0.783653638601   -1.803500688947   -0.341043504116
N         -1.678482283519   -2.466175034672   -0.079754407987
O          0.872824029098   -2.672197769738   -0.292202468614
N          1.504098094071   -1.860064575691    0.496266353137
C          0.977076869885   -0.673538476531    0.640406787962
H         -1.412129043514    0.521263628149   -1.369223292707
H          1.332873999510    0.058501475693    1.391590586439
    9
 SCF done      19.39554987
N         -0.588154217402    0.555438035614   -0.778096435473
C         -0.239300231593   -0.482563390820   -0.167220014325
N         -0.793300632545   -1.804383503868   -0.312313353759
N         -1.684905781211   -2.472220422757   -0.021428839128
O          0.881053287960   -2.631823872644   -0.355207230769
N          1.509138727857   -1.851878425269    0.470114076361
C          0.974608324987   -0.674859512947    0.651903288215
H         -1.392230960665    0.514163183994   -1.398619236861
H          1.309165810612    0.036163037796    1.433188023540
    9
 SCF done      21.53425843
N         -0.567638040494    0.546540891446   -0.800387810763
C         -0.250698561220   -0.483625747734   -0.157550360736
N         -0.813411471388   -1.800739648572   -0.290573953455
N         -1.675527130766   -2.485624874928    0.031808784170
O          0.888893649021   -2.593666662341   -0.411294652911
N          1.499271754996   -1.848460989676    0.451235744636
C          0.971031375283   -0.674948387256    0.662898689073
H         -1.366689309335    0.508363612482   -1.426781672211
H          1.290842061902    0.020196935779    1.462965509798
    9
 SCF done      26.72415938
N         -0.552732909660    0.548009287304   -0.816307517067
C         -0.287411070628   -0.494562728732   -0.173732110335
N         -0.973270723259   -1.732827314953   -0.274269998727
N         -1.681605964593   -2.475382304873    0.197264171957
O          1.122796970186   -2.630960008656   -0.477584698384
N          1.549168406525   -1.811822845317    0.396294025199
C          0.926946383544   -0.720463164452    0.654658941265
H         -1.337268061530    0.549500511588   -1.457629797875
H          1.209451297615   -0.043456302908    1.473627261768
    9
 SCF done      20.65186955
N         -0.483039679633    0.428484377277   -0.936693761734
C         -0.401023070024   -0.517664336688   -0.114524971943
N         -1.254804701301   -1.611674858049   -0.037978702603
N         -1.979219145325   -2.209396519781    0.603180160915
O          1.753016724956   -2.395341871895   -0.797214069257
N          1.703097268379   -1.654335512648    0.181547486794
C          0.832164244614   -0.879556181662    0.657572211697
H         -1.206759449554    0.436949626995   -1.646505237217
H          1.012642135888   -0.409429594349    1.612937160949
    9
 SCF done      19.17496641
N         -0.461056593800    0.382670518423   -0.970236033136
C         -0.405181213863   -0.552025136531   -0.135945915116
N         -1.303484885631   -1.591584767118    0.006108496026
N         -2.055530903284   -2.119714843896    0.688088224142
O          1.880092755185   -2.309534175059   -0.847594326230
N          1.730228012251   -1.627579795917    0.158924696853
C          0.825665420740   -0.912390128963    0.647034216946
H         -1.201685849311    0.418714153577   -1.659274119432
H          0.967027585712   -0.500520695416    1.635215037546
    9
 SCF done      18.03638509
N         -0.427348109326    0.328495152387   -0.997823609641
C         -0.409733692939   -0.595424586219   -0.153534288827
N         -1.369096915365   -1.545629064656    0.052703310234
N         -2.131366557950   -2.035575989017    0.750795668036
O          1.988510361927   -2.191254517369   -0.898742977310
N          1.760282091305   -1.604417074823    0.140699591599
C          0.816973589119   -0.951003870195    0.649824331601
H         -1.171175424248    0.368433455100   -1.682207660813
H          0.919028985478   -0.585588376006    1.660605912621
    9
 SCF done      17.37640754
N         -0.388463980937    0.271548048554   -1.054322469745
C         -0.413545022181   -0.610145329770   -0.168273157880
N         -1.433130701535   -1.497051285555    0.084324910931
N         -2.128549847421   -1.938066329445    0.872387857271
O          2.087627050613   -2.062859797670   -0.944025048561
N          1.778478234110   -1.586052521777    0.127064729639
C          0.797447373805   -0.996711026335    0.638203721169
H         -1.149674584682    0.343784972456   -1.715478852380
H          0.825885806128   -0.736411601158    1.682438587156
    9
 SCF done      17.65138419
N         -0.384469938591    0.257984338392   -1.059441691696
C         -0.432280812541   -0.630845672634   -0.173868850944
N         -1.467666849906   -1.498868681512    0.057428550080
N         -2.151868717856   -1.936603390568    0.863364481301
O          2.201285974995   -2.039798694767   -0.910222669760
N          1.793961001251   -1.536428525063    0.124387014232
C          0.793035390854   -0.999479474301    0.640519034585
H         -1.154699618969    0.343957651531   -1.710120623424
H          0.778777898763   -0.771882421778    1.690275033225
    9
 SCF done      20.94639399
N         -0.406903791385    0.238549050571   -1.062842084875
C         -0.426680835691   -0.653496489804   -0.175964345347
N         -1.447683917745   -1.524403119935    0.076842737149
N         -2.262557875305   -1.807653158771    0.858260640336
O          2.290354450079   -1.986915646514   -0.899305974493
N          1.830068333126   -1.526142039205    0.112251953125
C          0.812711699258   -1.014051564647    0.622548811387
H         -1.196344864252    0.303710517422   -1.693186595123
H          0.783111129915   -0.841562419917    1.683715135341
    9
 SCF done      26.77822148
N         -0.384824739972    0.185914685730   -1.116087759100
C         -0.417427608153   -0.665644847224   -0.189684859130
N         -1.494767173408   -1.433246646798    0.137090099206
N         -2.269941772076   -1.771909117202    0.908199332044
O          2.342098254308   -1.913098559544   -0.909179304721
N          1.864741210650   -1.496449233040    0.108884734810
C          0.797151320059   -1.042656309780    0.606479029686
H         -1.207914745320    0.268197892889   -1.700377959183
H          0.746959582013   -0.943072735730    1.676996963988
    9
 SCF done      22.83774848
N         -0.376394489263    0.148951327571   -1.133005953848
C         -0.422754555864   -0.676426889338   -0.179521301954
N         -1.503899944750   -1.423324146984    0.156670211026
N         -2.309925218277   -1.677062176820    0.930922941849
O          2.405359663386   -1.788627002617   -0.926596537563
N          1.856978193882   -1.493841446727    0.104215170360
C          0.800935035341   -1.075862301240    0.615290392338
H         -1.193818511732    0.213764547163   -1.731738002846
H          0.719594155376   -1.039536781907    1.686083358139
    9
 SCF done      21.14610978
N         -0.383913360997    0.141803834207   -1.124123231751
C         -0.431888083973   -0.690108051051   -0.161777314491
N         -1.505424685119   -1.421791178670    0.181226790483
N         -2.384101420479   -1.656098407105    0.874367837113
O          2.458748216155   -1.737676976654   -0.922228789856
N          1.877069437948   -1.468571084246    0.091357195621
C          0.809330129012   -1.076425284817    0.623777831140
H         -1.190337702968    0.176225345335   -1.743315215359
H          0.726591798320   -1.079323067800    1.703035174598
    9
 SCF done      19.36812960
N         -0.369907262473    0.085580125356   -1.164255548021
C         -0.421874971683   -0.704510044716   -0.161758343961
N         -1.519608799975   -1.365249881869    0.231633741803
N         -2.426233852419   -1.522130249025    0.913762220444
O          2.539065856625   -1.575200261676   -0.914035087883
N          1.884538768287   -1.464246516358    0.092080187261
C          0.801227938083   -1.128983701419    0.615954563449
H         -1.193110314340    0.117465942464   -1.765444538751
H          0.681976965895   -1.254690283457    1.674383083258
    9
 SCF done      19.01928639
N         -0.352539834445    0.036605401821   -1.196418977120
C         -0.412139616981   -0.699752070912   -0.153120330012
N         -1.529228169959   -1.283093715861    0.281499337383
N         -2.444684545545   -1.469134182597    0.938240365030
O          2.576135781512   -1.438459746571   -0.908744545032
N          1.884937109979   -1.460576864101    0.084464311288
C          0.794826513357   -1.161111288121    0.608780694072
H         -1.195875353397    0.069152959172   -1.781993392277
H          0.654642443578   -1.405595363731    1.649612814368
    9
 SCF done      19.68405513
N         -0.335983303528    0.014160930732   -1.224574487196
C         -0.420134415332   -0.702493160465   -0.166087883103
N         -1.580008118731   -1.220543565084    0.247976015103
N         -2.399356253623   -1.431204776738    1.041669233880
O          2.638267897866   -1.335159496160   -0.851778912776
N          1.882271078543   -1.429453708875    0.092293063057
C          0.766570179403   -1.207604356132    0.591680249065
H         -1.173485294379    0.044581059098   -1.808937149950
H          0.597932557781   -1.544247797177    1.600080149620
    9
 SCF done      20.14893775
N         -0.323833247781   -0.061276240775   -1.241026268251
C         -0.412638157798   -0.748259630886   -0.167066412233
N         -1.595662229437   -1.235559268284    0.253726436904
N         -2.438655822251   -1.288181424065    1.045260471539
O          2.679391079854   -1.193318481042   -0.819582497008
N          1.912239925035   -1.390698029852    0.087263108263
C          0.770085881984   -1.257566249522    0.589361434273
H         -1.201103451146    0.023355804002   -1.781940152743
H          0.586250349539   -1.660461350377    1.556324156755
    9
 SCF done      22.07602419
N         -0.368220656552   -0.022147417706   -1.220641117615
C         -0.418798558811   -0.726579890707   -0.144546409426
N         -1.581021740814   -1.228867815211    0.289928994894
N         -2.521939031257   -1.286241088802    0.951858310641
O          2.801022649598   -1.181895270297   -0.764615628295
N          1.914012178518   -1.450372466288    0.055537474949
C          0.780463978005   -1.265134392052    0.560109400863
H         -1.242819873286    0.017052378783   -1.769437861321
H          0.613375382597   -1.667778908420    1.564127112909
    9
 SCF done      21.24447421
N         -0.343847833261   -0.041279456739   -1.216874882130
C         -0.410458042801   -0.725585402609   -0.133941150795
N         -1.570731749788   -1.222896153148    0.298094465501
N         -2.519681471675   -1.284531560675    0.918824487039
O          2.724209815790   -1.179797632566   -0.809072059474
N          1.916796261340   -1.377486256694    0.072816568237
C          0.784504290146   -1.258825132721    0.579001540309
H         -1.202040722884   -0.006968924607   -1.775650763702
H          0.597323781132   -1.714594350840    1.589122072616
    9
 SCF done      21.24571211
N         -0.384116334405   -0.061682377717   -1.223812059345
C         -0.408468758806   -0.736397717201   -0.137084902945
N         -1.554314319892   -1.197352823343    0.362457735896
N         -2.550982432165   -1.269638136441    0.841089766842
O          2.785898887120   -1.178796051713   -0.734741060546
N          1.934714635266   -1.422304041318    0.058031984778
C          0.789306082634   -1.294569101203    0.535831005152
H         -1.272145949599    0.012286762088   -1.724298850666
H          0.636182517847   -1.663511383851    1.544846658534
    9
 SCF done      23.38329609
N         -0.393665431102   -0.023520595710   -1.227767623582
C         -0.424224520153   -0.724201612121   -0.147853375923
N         -1.562251539599   -1.244496122215    0.307581683018
N         -2.530673727589   -1.319806184713    0.901347493243
O          2.843508548808   -1.286265869126   -0.723596283728
N          1.920282622268   -1.379890577589    0.057027604602
C          0.789352232322   -1.234181543164    0.555072709915
H         -1.286918680741    0.031150544389   -1.735716470804
H          0.620664823986   -1.630752910450    1.536224541059
    9
 SCF done      26.24323809
N         -0.362177538670   -0.051358038108   -1.224268465222
C         -0.422912826822   -0.738120839617   -0.132629659804
N         -1.570972303100   -1.223417054832    0.328022017383
N         -2.553154087039   -1.298531473022    0.889302287405
O          2.818991861142   -1.223262136036   -0.771776256932
N          1.910667108429   -1.371476931246    0.046377481974
C          0.783658573980   -1.273985281563    0.570536461415
H         -1.244635678494    0.025067835168   -1.749382140837
H          0.616609218574   -1.656880951445    1.566138552219
    9
 SCF done      22.61708771
N         -0.376273770566   -0.058529261682   -1.221131382145
C         -0.420301583774   -0.733891970325   -0.131844349882
N         -1.569154716483   -1.212105866135    0.343853483168
N         -2.553849670896   -1.270244313611    0.869632089925
O          2.816733900172   -1.189818577761   -0.726707872607
N          1.916684711149   -1.398636154933    0.032686325484
C          0.784073498481   -1.303140207420    0.539628141010
H         -1.260374021384    0.016495841723   -1.735464178260
H          0.638535981202   -1.662094360656    1.551668021007
    9
 SCF done      23.27005054
N         -0.374660940666   -0.057104854353   -1.220028938100
C         -0.423863970754   -0.735637517696   -0.130834490758
N         -1.573450095081   -1.223047577732    0.335525764201
N         -2.557059880200   -1.266435221887    0.878310029198
O          2.828544408229   -1.200824406769   -0.724858464749
N          1.912918981770   -1.383344339986    0.028447428008
C          0.782857250995   -1.301863548392    0.541234131855
H         -1.260468951570    0.019121558581   -1.738053332594
H          0.641257525275   -1.662828962367    1.552578150639
    9
 SCF done      29.19570957
N         -0.511307993935   -0.155973010791   -1.286582489050
C         -0.444077468425   -0.856234987319   -0.206627242585
N         -1.532711004743   -1.087077227712    0.543218526079
N         -2.626043477309   -1.415386008455    0.702173829416
O          3.068996288303   -1.416992536588   -0.276191438251
N          1.853434032098   -1.368858356650   -0.301846261284
C          0.822255898678   -1.213039002888    0.423259250755
H         -1.423680677601    0.223282259350   -1.536938480060
H          0.769208730834   -1.521685999748    1.461854582680
    9
 SCF done      27.05127901
N         -0.488504018352   -0.180544770142   -1.293017611575
C         -0.447851060425   -0.899042227546   -0.222225017975
N         -1.548384827250   -1.128747397981    0.504502811257
N         -2.633545001254   -1.312963397496    0.764033801951
O          3.065955660336   -1.342899123791   -0.344147479203
N          1.875043154309   -1.331013712572   -0.227232916999
C          0.812507615702   -1.263483343619    0.429554594295
H         -1.396143894428    0.208410135492   -1.550747426282
H          0.736996699364   -1.561681033044    1.461599522131
    9
 SCF done      21.74211704
N         -0.530495293950   -0.139088002387   -1.269377508621
C         -0.433318463968   -0.833513875203   -0.189336419079
N         -1.535308477131   -1.144270679227    0.497653935060
N         -2.631831639683   -1.319477865824    0.753242163830
O          3.049686082026   -1.448183474777   -0.158853179116
N          1.864205213874   -1.280503312282   -0.360830980743
C          0.831176913454   -1.232084227191    0.387772244436
H         -1.456345714196    0.152152854932   -1.561413925455
H          0.818305707573   -1.566996288742    1.423463947387
    9
 SCF done      23.36531066
N         -0.518409627456   -0.143660389381   -1.270926642360
C         -0.438682187398   -0.848093299110   -0.198330303476
N         -1.536021621419   -1.119133110135    0.512223684099
N         -2.627639203435   -1.363108084893    0.721098406662
O          3.062827188967   -1.436004059945   -0.239329969061
N          1.858994664565   -1.314296885611   -0.314774296675
C          0.824846325635   -1.239318185625    0.404362764739
H         -1.435575123717    0.178412471238   -1.548625871103
H          0.785733912258   -1.526763327237    1.456622504876
    9
 SCF done      22.35756504
N         -0.527911310233   -0.123809979309   -1.294896655395
C         -0.440605782798   -0.841521765402   -0.228364444770
N         -1.529975083637   -1.158656560277    0.467142283162
N         -2.594605927806   -1.362278609784    0.812779501868
O          3.070437331739   -1.451605748559   -0.184822228089
N          1.875113939165   -1.315143897450   -0.307525422660
C          0.816632562310   -1.239343810333    0.379077317906
H         -1.452535995171    0.198542918635   -1.556090238620
H          0.759524594431   -1.518147418121    1.435020164297
    9
 SCF done      21.61575139
N         -0.533666427467   -0.113372797478   -1.279569523140
C         -0.432909462537   -0.822150686106   -0.210215838253
N         -1.528794798311   -1.147571782404    0.478949492724
N         -2.600044174404   -1.386105111947    0.772847178246
O          3.051642427906   -1.484547170620   -0.161314347535
N          1.863225308887   -1.317628574270   -0.343863606419
C          0.826118799747   -1.216896291517    0.385096695734
H         -1.462083246192    0.180365664929   -1.556789503950
H          0.792585900372   -1.504058121387    1.437179730292
    9
 SCF done      21.60938524
N         -0.535723881198   -0.115886820872   -1.273370585193
C         -0.431228757994   -0.818030298325   -0.201803079511
N         -1.527286220409   -1.129853497457    0.499427260212
N         -2.607027440096   -1.395693012014    0.738290055012
O          3.049830768031   -1.490778625996   -0.170881693075
N          1.860828698731   -1.316562164865   -0.345571442658
C          0.829035219723   -1.213437499072    0.390250666699
H         -1.463119953535    0.174921264696   -1.554552222432
H          0.800765894846   -1.506644216896    1.440531318747
    9
 SCF done      21.48467919
N         -0.535748744961   -0.115354726699   -1.277610032023
C         -0.431616720636   -0.817389801411   -0.205676648711
N         -1.527601476034   -1.131563718907    0.491822020581
N         -2.600936443084   -1.397017634403    0.751000731425
O          3.049274204432   -1.491032489336   -0.164605263654
N          1.861886468504   -1.317634174179   -0.344183555658
C          0.826929245219   -1.213532207641    0.387629969680
H         -1.463574895378    0.177095672467   -1.554891688793
H          0.797462689937   -1.505535790591    1.438834744753
    9
 SCF done      21.43484476
N         -0.544231170598   -0.109267532840   -1.281476155779
C         -0.428749174957   -0.814709012035   -0.211918568318
N         -1.524231316564   -1.137861089069    0.485516854430
N         -2.598737393794   -1.386143964619    0.765092186262
O          3.053181749101   -1.493643752271   -0.136093466941
N          1.868023105949   -1.316419352045   -0.348608562503
C          0.827573200669   -1.212527986575    0.379593574615
H         -1.477132147476    0.173355122632   -1.556325936673
H          0.800377475668   -1.514747303979    1.426540352807
    9
 SCF done      21.42950820
N         -0.546748422604   -0.109222463684   -1.282357425676
C         -0.429009834742   -0.815424622102   -0.213308884360
N         -1.522395442244   -1.144756455861    0.483865868969
N         -2.599632890718   -1.375938997685    0.769261574949
O          3.053773157068   -1.492730865471   -0.129565433992
N          1.871912719100   -1.311882135667   -0.347275351429
C          0.827080182457   -1.212479258782    0.376420484026
H         -1.479594790103    0.172117128259   -1.557242148440
H          0.800689649686   -1.521647199708    1.422521593852
    9
 SCF done      21.42340109
N         -0.548527677560   -0.109252598295   -1.282601185722
C         -0.428411374336   -0.814729904895   -0.213538284231
N         -1.520927472906   -1.144947055369    0.485359945822
N         -2.599092469010   -1.374698465690    0.767992844388
O          3.053428556572   -1.494140646728   -0.124405246128
N          1.872517063421   -1.310924604360   -0.349951109632
C          0.827927470215   -1.212047661336    0.375011468475
H         -1.481919801995    0.171454123693   -1.556350145760
H          0.801080033499   -1.522678057620    1.420801990588
    9
 SCF done      21.42248780
N         -0.548849151813   -0.109548294693   -1.282862507607
C         -0.428374319930   -0.814578730010   -0.213651223309
N         -1.520575803516   -1.144268154938    0.485931472755
N         -2.598531454661   -1.375097061026    0.767945618634
O          3.053371732541   -1.494408481219   -0.123254656260
N          1.872753008904   -1.310607753226   -0.350649457559
C          0.828177001161   -1.212330478260    0.374567077954
H         -1.482221141094    0.171710783073   -1.556104799092
H          0.800324456409   -1.522836700300    1.420398752285
    9
 SCF done      21.42136762
N         -0.549848504949   -0.109390548018   -1.283277955098
C         -0.428350478920   -0.814276503250   -0.214261762918
N         -1.519786749984   -1.143875584045    0.486146276995
N         -2.596941687991   -1.376237292961    0.769065456684
O          3.053287244980   -1.495515736142   -0.119980517134
N          1.873651722101   -1.310670289390   -0.351993255227
C          0.828597139765   -1.212611859015    0.373121918985
H         -1.483076095132    0.172785329667   -1.555732150643
H          0.798541738130   -1.522172387647    1.419232266057
    9
 SCF done      21.42029894
N         -0.550025294138   -0.108548240401   -1.283278109573
C         -0.428308835185   -0.813808298371   -0.214533233219
N         -1.520089362766   -1.145271667610    0.484255172551
N         -2.596147254858   -1.376469306912    0.771760121942
O          3.053025994672   -1.496457086325   -0.117871503973
N          1.874156672087   -1.310280046577   -0.352604743377
C          0.828474222179   -1.212790754715    0.372212165510
H         -1.483198082352    0.173472023432   -1.556195472317
H          0.798186268261   -1.521811493121    1.418575880055
    9
 SCF done      21.41878926
N         -0.551305527862   -0.107195446085   -1.282768234641
C         -0.428164373367   -0.813774924569   -0.215040657708
N         -1.519888953693   -1.146812375422    0.483302465223
N         -2.595877196617   -1.375564925028    0.772730561721
O          3.053191777023   -1.497492913102   -0.114598153837
N          1.875192980840   -1.311060118130   -0.353127551060
C          0.828433680911   -1.212129575996    0.370721859226
H         -1.484641393169    0.173341865039   -1.556060882226
H          0.799133334033   -1.521276457407    1.417160870902
    9
 SCF done      21.41811061
N         -0.550863707959   -0.106775817602   -1.282515563967
C         -0.428097777795   -0.813511001784   -0.214738963892
N         -1.520434454089   -1.147598796165    0.482204479152
N         -2.596149332798   -1.375666933657    0.772935475994
O          3.052504094547   -1.498058111741   -0.114762900394
N          1.874571254031   -1.310882535514   -0.352987363666
C          0.827989121345   -1.211716376481    0.371055291514
H         -1.484360254187    0.173186038730   -1.556186334127
H          0.800915384904   -1.520941336386    1.417316157085
    9
 SCF done      21.41800211
N         -0.550766097220   -0.106732788912   -1.282239573120
C         -0.428078014892   -0.813398434943   -0.214361605822
N         -1.520667341246   -1.147885299553    0.482042336254
N         -2.596756529446   -1.374820541321    0.772606636686
O          3.052397608554   -1.497794264721   -0.114947171359
N          1.874531553414   -1.310565871424   -0.352978389641
C          0.827919073830   -1.211721437163    0.371202634737
H         -1.484326820555    0.172594722567   -1.556270632583
H          0.801820895560   -1.521640955429    1.417266042848
    9
 SCF done      21.41797385
N         -0.550828144376   -0.106777062214   -1.282270044124
C         -0.428085529315   -0.813405443057   -0.214398939510
N         -1.520589416306   -1.147647586178    0.482255732272
N         -2.596653972234   -1.375049372723    0.772413135722
O          3.052356257041   -1.497879095122   -0.114820352693
N          1.874533832372   -1.310636772906   -0.353055428449
C          0.827942984758   -1.211692558978    0.371165122311
H         -1.484384662811    0.172672248089   -1.556200523664
H          0.801782978770   -1.521549227611    1.417231575736
