    9
 SCF done       0.00000000
N         -0.758737340171    0.538811463738   -0.529061436008
C         -0.163549096309   -0.501165840857   -0.158936793366
N         -0.694958640102   -1.821825518377   -0.419516679965
N         -1.588528937894   -2.324154746167   -0.908188476081
O          0.630641604609   -2.770236595239    0.358049535405
N          1.419595064597   -1.869585020075    0.779956103395
C          1.076287346585   -0.648301768165    0.549584754219
H         -1.637229802915    0.418298487207   -1.024213878462
H          1.688914166102    0.168669500434    0.873504215562
    9
 SCF done       0.01245991
N         -0.757961917546    0.539772593958   -0.528990449362
C         -0.167333377435   -0.501572546710   -0.155196386120
N         -0.693046137723   -1.821860697044   -0.424063722116
N         -1.587708978657   -2.324903180236   -0.909570750736
O          0.629575370680   -2.771514091577    0.365564903125
N          1.421710633344   -1.869670818592    0.776388488959
C          1.076570551496   -0.648063874809    0.547453843939
H         -1.638036256919    0.420355955082   -1.023633386855
H          1.688664477562    0.167966622530    0.873224803966
    9
 SCF done       0.10714475
N         -0.752983496598    0.540483739691   -0.535848190801
C         -0.172890030383   -0.501751085033   -0.148010377476
N         -0.695727832112   -1.822054176189   -0.425714956142
N         -1.599154555510   -2.325349753479   -0.894304681822
O          0.639197074698   -2.776447459306    0.359185378124
N          1.430526379001   -1.869795361226    0.764050408780
C          1.075068435454   -0.647505216455    0.549075772571
H         -1.631637374778    0.423130404749   -1.035041971501
H          1.680035764928    0.169798869749    0.887785962967
    9
 SCF done       0.20100734
N         -0.739945723641    0.539182442427   -0.555091553046
C         -0.177084752294   -0.502386601129   -0.141383744654
N         -0.709236139237   -1.820389214284   -0.409259317907
N         -1.629211274259   -2.326098116189   -0.838523853861
O          0.676407250759   -2.775209100095    0.297418484496
N          1.436655108294   -1.871023914234    0.751172972658
C          1.064577225541   -0.648162726358    0.566023365824
H         -1.608286356849    0.423207813318   -1.072401159190
H          1.658559026486    0.171389379044    0.923222150380
    9
 SCF done       0.87020884
N         -0.733513312165    0.541515949047   -0.564299821674
C         -0.170408904579   -0.503388626118   -0.150595011048
N         -0.702891772933   -1.818126084410   -0.420463999142
N         -1.641344431215   -2.333708128915   -0.799512778959
O          0.686478346672   -2.773781098274    0.275758016240
N          1.435234150213   -1.873415446549    0.747982120613
C          1.059542064976   -0.649398289760    0.572854593557
H         -1.603245682436    0.430341556323   -1.080383387694
H          1.642583905967    0.170470131357    0.939837612807
    9
 SCF done       2.18012425
N         -0.719004863382    0.546965948695   -0.587690525468
C         -0.176618740171   -0.500555777350   -0.145190151764
N         -0.708160592528   -1.817627351052   -0.423480750339
N         -1.668195412684   -2.348694079934   -0.721217302163
O          0.711799294324   -2.780948201286    0.227783064684
N          1.450612813633   -1.873710954965    0.715934264873
C          1.050151454093   -0.649531983772    0.585902499454
H         -1.579578912863    0.444378952737   -1.122571011740
H          1.611429324179    0.170233409327    0.991707257263
    9
 SCF done       3.74257152
N         -0.702271401241    0.550713077690   -0.615152083214
C         -0.184922540782   -0.497414773334   -0.139079321694
N         -0.719858370893   -1.817017606761   -0.415221663202
N         -1.692410018002   -2.361710768834   -0.634680904568
O          0.736841748306   -2.781974772801    0.166867268533
N          1.468093203635   -1.870221273728    0.676736330835
C          1.038739899883   -0.650530023785    0.602458763786
H         -1.548660729988    0.453274062938   -1.174606631027
H          1.576882573583    0.165392041215    1.053855585252
    9
 SCF done       7.22279072
N         -0.665444361240    0.548147133503   -0.662085441622
C         -0.196008565780   -0.499847856658   -0.137735304893
N         -0.748977362849   -1.809096026951   -0.381870152877
N         -1.727513407049   -2.375649765531   -0.468617924020
O          0.782168372366   -2.737042512586   -0.003735110431
N          1.476583627143   -1.865570050716    0.624109278519
C          1.014674238731   -0.653441565889    0.644558911518
H         -1.476559766272    0.433423211936   -1.271006279660
H          1.513511589449    0.149587395493    1.177559368266
    9
 SCF done      13.59987338
N         -0.608972231988    0.548219124936   -0.744629671559
C         -0.228553013920   -0.476849021030   -0.119471007985
N         -0.783090847111   -1.789252635617   -0.326063149455
N         -1.721068570729   -2.420284409533   -0.274904100056
O          0.809168405404   -2.684422957907   -0.164832537328
N          1.486604070128   -1.858448215852    0.540809355493
C          0.979332436172   -0.661885559817    0.679759351598
H         -1.386242553160    0.434046736726   -1.395987026455
H          1.425256669804    0.099386900693    1.326496130446
    9
 SCF done      18.11957350
N         -0.584968476609    0.544581795898   -0.794719136071
C         -0.224746122581   -0.462624689712   -0.140421263242
N         -0.792423154366   -1.760542050784   -0.324288060866
N         -1.699676647267   -2.426277183177   -0.161322683712
O          0.808107360374   -2.669000639669   -0.204967896798
N          1.497808752173   -1.838771718903    0.492977193902
C          0.986370804007   -0.653688329731    0.661209187533
H         -1.364921959766    0.425683894938   -1.441744866679
H          1.346883808534    0.031148883739    1.434454870634
    9
 SCF done      28.42777394
N         -0.562015055202    0.505468282274   -0.842631098199
C         -0.281147419161   -0.520958569677   -0.140439297271
N         -1.000060585961   -1.708762420267   -0.251284724637
N         -1.919793793767   -2.287222907749    0.079739403208
O          1.311767291880   -2.688638806313   -0.391048870310
N          1.629287548128   -1.774796861729    0.418766891369
C          0.902789542886   -0.751424057231    0.699981156244
H         -1.318759118272    0.464417055564   -1.515161119575
H          1.210365953969   -0.047571752371    1.463255003772
    9
 SCF done      22.13080728
N         -0.464587836698    0.390868907322   -0.934066307059
C         -0.371525366016   -0.555618747337   -0.102203209218
N         -1.235560748311   -1.640452111649   -0.104921065361
N         -2.106309466978   -2.137927388904    0.448327238912
O          1.714328916712   -2.412695056978   -0.698380442017
N          1.694731625176   -1.633128112475    0.263744801876
C          0.821371172912   -0.859008019874    0.737753219309
H         -1.119445391303    0.333862190974   -1.705990082252
H          1.039431459105   -0.295391698379    1.616913190411
    9
 SCF done      20.27431282
N         -0.425709175443    0.322821777744   -0.988272914609
C         -0.383705669923   -0.584232817104   -0.120510941243
N         -1.297450438128   -1.626067847065   -0.019080091087
N         -2.212522366643   -2.036529868340    0.526267960482
O          1.904741321703   -2.238741696031   -0.808685322003
N          1.731331496841   -1.594388897517    0.228598153042
C          0.815172378011   -0.876570944356    0.732410912752
H         -1.090823889136    0.276040448631   -1.751090274073
H          0.931400707217   -0.451820193261    1.721539861439
    9
 SCF done      19.84571954
N         -0.375500538201    0.264996498476   -1.029090023560
C         -0.383857417436   -0.603332665297   -0.123260311056
N         -1.331756912339   -1.601175948293    0.005518250692
N         -2.244987508228   -1.970109338029    0.579577888612
O          1.921552840096   -2.113017567093   -0.856408511855
N          1.757011366272   -1.536491795100    0.223641024023
C          0.800001377382   -0.900929358542    0.746082204550
H         -1.038094621482    0.214044849355   -1.792646286261
H          0.868065778437   -0.563474712777    1.767763109556
    9
 SCF done      18.68009855
N         -0.358111011831    0.263840191039   -1.032903705488
C         -0.390139179856   -0.620698418011   -0.139758683400
N         -1.363598629711   -1.576786453932   -0.017426771642
N         -2.266077781731   -1.965189598066    0.568888395203
O          2.010431015133   -2.091748244483   -0.816235846236
N          1.769418568690   -1.533433593691    0.250294180865
C          0.779548298926   -0.927817916385    0.741464144964
H         -1.025917219385    0.237691940701   -1.794638199365
H          0.816880304364   -0.595347944673    1.761493829598
    9
 SCF done      17.60584730
N         -0.315405423464    0.202869855305   -1.094453967109
C         -0.391240130997   -0.644531325780   -0.165954657484
N         -1.416664799371   -1.532444775210    0.006069698007
N         -2.319688976989   -1.858803046545    0.633112699454
O          2.168034710647   -1.931143237079   -0.817233859015
N          1.782049790888   -1.524826258032    0.265366739007
C          0.753420651896   -0.974688322121    0.746249054538
H         -0.988255861743    0.208088770307   -1.846971838494
H          0.700184403632   -0.754011698246    1.794993475796
    9
 SCF done      17.09544913
N         -0.275878380021    0.171377688877   -1.105436531165
C         -0.388677682061   -0.664268081645   -0.165665086678
N         -1.449951898844   -1.506835589400   -0.014148931439
N         -2.410677421835   -1.770584681512    0.546744546489
O          2.268592020717   -1.829063630570   -0.770409557456
N          1.805617277797   -1.489816540846    0.304336027100
C          0.740449564038   -1.003995209444    0.759240711270
H         -0.939632282693    0.167571193459   -1.864422768437
H          0.622593167401   -0.883875186519    1.830938935015
    9
 SCF done      17.73550482
N         -0.234258304863    0.133259324016   -1.128279811178
C         -0.381074296470   -0.709861933274   -0.196600176595
N         -1.499673099910   -1.465614284535   -0.048370055427
N         -2.465903408146   -1.669605533197    0.536231303024
O          2.392321399785   -1.752863036288   -0.705037993080
N          1.838882366558   -1.450069753014    0.335714432694
C          0.728270382107   -1.051017643102    0.754589784755
H         -0.958244928066    0.151001457603   -1.846091382295
H          0.552114253604   -0.994718635510    1.819021242802
    9
 SCF done      20.99362832
N         -0.236250773268    0.120578303876   -1.153334110065
C         -0.376039485177   -0.715144372829   -0.209892094927
N         -1.515726162373   -1.431537391680   -0.061783313300
N         -2.515441673002   -1.579661243621    0.478316252941
O          2.532676920416   -1.680349193297   -0.601735684790
N          1.863997343164   -1.463107297257    0.390314461912
C          0.715105808462   -1.095655850722    0.736806169884
H         -0.973729012037    0.143261836695   -1.851587832084
H          0.477841398215   -1.107874828564    1.794073495229
    9
 SCF done      21.03793433
N         -0.251496981280    0.131802646770   -1.148891417482
C         -0.365920234494   -0.714368149773   -0.197288219822
N         -1.509703946911   -1.449267750031   -0.092779528068
N         -2.551190703870   -1.548078095726    0.361337132852
O          2.593592173720   -1.635627877025   -0.531528495818
N          1.863558364170   -1.493168555505    0.443420771620
C          0.704825790634   -1.109791979380    0.753962580041
H         -0.942685145120    0.161524519762   -1.860627784302
H          0.431455047752   -1.152514796492    1.793572305680
    9
 SCF done      20.23248214
N         -0.219024457671    0.120000719229   -1.157372111449
C         -0.366479879832   -0.721124907809   -0.211257107526
N         -1.530583794529   -1.401425055987   -0.100829507687
N         -2.597020598352   -1.495236678969    0.312481761780
O          2.670216615579   -1.588182991080   -0.439994236970
N          1.879488545387   -1.463598841954    0.471470417680
C          0.697177923751   -1.135812440602    0.744269662669
H         -0.952930439389    0.155425070322   -1.859329205905
H          0.391590449556   -1.279534910447    1.761737672009
    9
 SCF done      19.94578239
N         -0.193712400407    0.075179446081   -1.214887933712
C         -0.377113332183   -0.725465562872   -0.243608931692
N         -1.567258120602   -1.346334431711   -0.079425837188
N         -2.589284436614   -1.410198958555    0.450411019947
O          2.758512288813   -1.469644883319   -0.361492754255
N          1.877081655637   -1.461581872808    0.464965814425
C          0.676399315710   -1.173907282972    0.707041766714
H         -0.945212403807    0.139534180097   -1.902254355631
H          0.333021798153   -1.437070671342    1.700428556091
    9
 SCF done      25.50885937
N         -0.185302365253    0.040227800359   -1.208533927126
C         -0.395572058306   -0.766809794352   -0.254024793952
N         -1.597328179715   -1.312812676936   -0.077486607576
N         -2.579291611307   -1.266173699205    0.521101127361
O          2.875593588019   -1.376157108651   -0.247710544600
N          1.881623735119   -1.362258077616    0.358192515931
C          0.670112612680   -1.278844316235    0.680423294768
H         -0.968994207356    0.121273723457   -1.929286743521
H          0.271592850618   -1.607935888222    1.678503023215
    9
 SCF done      27.50391496
N         -0.279012681710   -0.078794908012   -1.307073624476
C         -0.408329149831   -0.816562848438   -0.260239306060
N         -1.616130599679   -1.229764799454    0.145579435381
N         -2.733680425306   -1.156223666989    0.386753029992
O          3.064674350007   -1.405314151167    0.293545542027
N          1.874766802406   -1.287202140142    0.016605002269
C          0.717143310814   -1.302591807075    0.528569341672
H         -1.123781626129    0.199474562692   -1.789745897090
H          0.476784383927   -1.732510278615    1.507183820784
    9
 SCF done      24.87469409
N         -0.292141379461   -0.130876536639   -1.301283565714
C         -0.399918772581   -0.888302427549   -0.261430314580
N         -1.635293691721   -1.158535140647    0.194492899018
N         -2.768072560062   -1.136872593831    0.298583109476
O          3.077373664519   -1.390220560625    0.237068723079
N          1.903953157359   -1.241300755474    0.057670807914
C          0.738658065161   -1.313652044072    0.550681012976
H         -1.127115565736    0.190243860686   -1.764955590364
H          0.474991446920   -1.739973839049    1.510350262695
    9
 SCF done      22.05096465
N         -0.315280024671   -0.046209342484   -1.325286199820
C         -0.391555509241   -0.786772808319   -0.278343391070
N         -1.595378172899   -1.148132765880    0.194465411111
N         -2.709147681822   -1.309810044809    0.350579014002
O          2.988907039108   -1.539242572305    0.450242102217
N          1.907012559548   -1.261742489389   -0.041200643476
C          0.734417024369   -1.258980006021    0.485968738189
H         -1.176654175432    0.239561251494   -1.775971118598
H          0.530113305441   -1.698161259586    1.460723431945
    9
 SCF done      21.69492763
N         -0.301706814331   -0.064315459638   -1.335601653128
C         -0.394343118204   -0.797767988879   -0.277026505224
N         -1.599553349614   -1.106868009770    0.207093152156
N         -2.703182606488   -1.401630745653    0.289083726823
O          3.016858401482   -1.548880356601    0.374530984183
N          1.882252864571   -1.337717848334   -0.022526505560
C          0.730218063984   -1.244896887910    0.507447668413
H         -1.166684803481    0.266047880789   -1.747856250633
H          0.508575726679   -1.573460621404    1.526032727570
    9
 SCF done      21.58821553
N         -0.322806508374   -0.068620212343   -1.326224008018
C         -0.396210531499   -0.814125030998   -0.282308434755
N         -1.591876220244   -1.135697212534    0.230885874929
N         -2.711311059301   -1.344035651028    0.250586817758
O          3.023740127369   -1.538532847633    0.389553043379
N          1.899171029014   -1.333574467005   -0.021979766705
C          0.741059094481   -1.251186078765    0.497386198434
H         -1.190590780519    0.259818588182   -1.731117145196
H          0.521259213473   -1.583537125276    1.514394764574
    9
 SCF done      21.65415485
N         -0.300241212236   -0.050222579796   -1.345258436405
C         -0.394444765209   -0.795543817427   -0.298936519029
N         -1.594120031270   -1.143020246876    0.168656173840
N         -2.688073435774   -1.363472385092    0.383639792148
O          2.999246609658   -1.537504860381    0.419709680089
N          1.891475207531   -1.320471390323   -0.025688513802
C          0.726572766462   -1.250489573100    0.490094111161
H         -1.167560116130    0.261179802478   -1.766584290507
H          0.499579341568   -1.609944986582    1.495545347105
    9
 SCF done      21.49283964
N         -0.311943935272   -0.046900379319   -1.320172172883
C         -0.390737897280   -0.796386670807   -0.275119440779
N         -1.596895922745   -1.155149510574    0.173362341766
N         -2.707908774346   -1.351348455909    0.313702538820
O          3.001925678979   -1.549091578900    0.409555939451
N          1.892079712648   -1.321281366545   -0.037240171296
C          0.736125407842   -1.242054873788    0.502750952972
H         -1.176802410556    0.247321576462   -1.758421992449
H          0.526592505331   -1.594598777921    1.512759348897
    9
 SCF done      21.45182787
N         -0.315973333955   -0.055349916326   -1.332408737776
C         -0.391887109839   -0.794584563851   -0.281188726480
N         -1.590669405546   -1.131834411643    0.204208083407
N         -2.700697498022   -1.377715850907    0.281815326166
O          3.011002104223   -1.557802753772    0.399353974615
N          1.895988607471   -1.337124847337   -0.024723171245
C          0.738083013161   -1.237165436805    0.500767190062
H         -1.190288262027    0.263627059735   -1.739416957962
H          0.516876249033   -1.581539316395    1.512770363713
    9
 SCF done      21.42128831
N         -0.315774690820   -0.056644350356   -1.326431671373
C         -0.393765072139   -0.802966932027   -0.281017076615
N         -1.594209062390   -1.138836691648    0.201401975616
N         -2.707249001440   -1.355334101859    0.293494091328
O          3.011056277479   -1.541850377779    0.402800944410
N          1.893730493921   -1.332578541324   -0.030881144147
C          0.736047323916   -1.244457587896    0.499088984452
H         -1.179849914244    0.252163678849   -1.749718097429
H          0.522448010218   -1.588985133260    1.512439338258
    9
 SCF done      21.43416626
N         -0.316931396140   -0.052641163885   -1.323205768804
C         -0.389715695198   -0.800456089546   -0.279043391230
N         -1.594884550277   -1.145907575757    0.190728392578
N         -2.708044507393   -1.353106996459    0.293704242669
O          3.007584802886   -1.547105916789    0.409605872275
N          1.894972503840   -1.329922422081   -0.037213061477
C          0.738692458295   -1.243023808373    0.500831001458
H         -1.185091599315    0.250428472177   -1.748255032921
H          0.525852348003   -1.587754536686    1.514025089952
    9
 SCF done      21.41953786
N         -0.316287656491   -0.051949160050   -1.325374735300
C         -0.391759330077   -0.798661116662   -0.279986383107
N         -1.593669134746   -1.141658682782    0.195003172888
N         -2.705250128663   -1.361678303316    0.293232217264
O          3.008174971438   -1.550035853881    0.405029401450
N          1.894552655733   -1.332210422018   -0.032101407864
C          0.737174415399   -1.240302062060    0.500609525740
H         -1.183471777012    0.254112686824   -1.748551415918
H          0.522970349018   -1.587107123355    1.513316969346
    9
 SCF done      21.41698700
N         -0.316544315393   -0.053564672768   -1.325385678737
C         -0.391522365461   -0.800230738371   -0.280168578478
N         -1.593693662810   -1.141487136445    0.197326146546
N         -2.706382098314   -1.357854423819    0.290856977007
O          3.008874211674   -1.547308157059    0.405849398890
N          1.894812180785   -1.332403182213   -0.032715777472
C          0.737355332569   -1.241423095190    0.500073702355
H         -1.184215271558    0.252491473570   -1.747535718880
H          0.523750352908   -1.587710104906    1.512876873369
    9
 SCF done      21.41736979
N         -0.316640348434   -0.053094229309   -1.325538785645
C         -0.391433188426   -0.800453919109   -0.281019874383
N         -1.593665007806   -1.139493119490    0.198101287947
N         -2.705321772063   -1.360302430573    0.290938599996
O          3.007782114770   -1.548869146910    0.406779109558
N          1.894566513010   -1.331988788895   -0.032571361827
C          0.737168204601   -1.240880814062    0.499689205087
H         -1.184422497189    0.252791109697   -1.747585992474
H          0.524400346136   -1.587198698549    1.512385156342
    9
 SCF done      21.41625236
N         -0.317231639302   -0.052775719853   -1.325108322525
C         -0.390922320719   -0.800142803839   -0.280756607233
N         -1.593360105960   -1.141774715807    0.198906137759
N         -2.706645903551   -1.355414861827    0.290227644729
O          3.009166335711   -1.547089435464    0.406642855420
N          1.895348544520   -1.331001765454   -0.032065220308
C          0.737380279072   -1.241122293652    0.499940302886
H         -1.185188796186    0.250714584526   -1.748561824625
H          0.523887971015   -1.590883025830    1.511952378497
    9
 SCF done      21.41578413
N         -0.317012927406   -0.052173521994   -1.324797054212
C         -0.391296114792   -0.800061820777   -0.280945012225
N         -1.592811604866   -1.143259688669    0.198945543302
N         -2.706243204860   -1.356931843972    0.289536309117
O          3.008701324085   -1.548297733603    0.405928465226
N          1.894829424510   -1.331534301071   -0.032031084530
C          0.737177146867   -1.240981635344    0.500040747422
H         -1.184894608130    0.252035604412   -1.748162209770
H          0.523984929092   -1.588285096181    1.512661640368
    9
 SCF done      21.41569453
N         -0.316983924663   -0.052953096960   -1.325261472384
C         -0.391230938868   -0.800387676987   -0.281051745765
N         -1.592817915614   -1.142015537264    0.199156446208
N         -2.706123386132   -1.356791483517    0.289662418224
O          3.008737588018   -1.548029964243    0.405368806635
N          1.894481567580   -1.331177144056   -0.031385246782
C          0.737281618388   -1.240834644657    0.500327051868
H         -1.184807026998    0.251725502361   -1.747946665766
H          0.523896782889   -1.589025992076    1.512307752360
    9
 SCF done      21.41570334
N         -0.316667562944   -0.053668437259   -1.325433609377
C         -0.391376961967   -0.800259069843   -0.280632191904
N         -1.593124703886   -1.140147269031    0.200051862940
N         -2.705917063204   -1.358011498134    0.288966382534
O          3.009075909863   -1.547703229902    0.403874248390
N          1.894140222882   -1.331498899497   -0.031140439720
C          0.737212051582   -1.241229720570    0.500713491569
H         -1.184279748034    0.251775930547   -1.748053083140
H          0.523372220108   -1.588747843611    1.512830683309
    9
 SCF done      21.41578256
N         -0.316365911585   -0.053889545306   -1.325404530613
C         -0.391557244968   -0.800253706357   -0.280447761132
N         -1.593255983911   -1.139918920544    0.200231488840
N         -2.705986176679   -1.358520469373    0.288591588957
O          3.009306736114   -1.547655391984    0.402706864212
N          1.893821503914   -1.331707441833   -0.030904352130
C          0.737148098797   -1.241237294616    0.501079366654
H         -1.183855002141    0.251887443660   -1.748043411313
H          0.523178345058   -1.588194710847    1.513368091226
    9
 SCF done      21.41573809
N         -0.316518903245   -0.053702833892   -1.325279748658
C         -0.391468841155   -0.800155141302   -0.280373715716
N         -1.593155840849   -1.140072426900    0.200195398846
N         -2.705891853134   -1.358626565136    0.288274303241
O          3.009234766208   -1.547899568849    0.402724266700
N          1.893829198838   -1.331956703006   -0.031023584508
C          0.737247659761   -1.241090180199    0.501138485390
H         -1.184061612091    0.251874090533   -1.747941647620
H          0.523219790165   -1.587860708549    1.513463587023
    9
 SCF done      21.41738497
N         -0.316495566400   -0.054124711900   -1.325673461500
C         -0.391776607800   -0.800621037300   -0.280580394700
N         -1.593805338600   -1.139546663700    0.200396855600
N         -2.706700044200   -1.357508806600    0.289274876000
O          3.011290081400   -1.546324717800    0.402262717100
N          1.894851655300   -1.331462300600   -0.030920154700
C          0.737261013300   -1.241974868100    0.501293699700
H         -1.183731502500    0.251949027700   -1.748840778800
H          0.521540673900   -1.589875958900    1.513963985900
