          12
  -21.5073406819492     
 C         0.262868344       1.413750221       0.928931234
 O         1.384673393       0.893287290       1.161839051
 C         1.115296181      -1.098583153      -0.661106522
 H        -0.521215619       1.233890583       1.707725212
 C         0.160261602      -1.156807222       0.490824563
 H         2.011024741      -1.595572884      -0.415534557
 H         0.724468487      -1.664102025      -1.526567894
 O        -0.997159254      -1.333400555       0.297476963
 H         1.252819759      -0.092633106      -1.187062554
 H         0.671783487      -0.930701588       1.510865667
 O        -0.124184255       1.940790002      -0.248278036
 H         0.711703925       1.799970498      -0.701596466
