          12
  -21.3904060970050     
 C        -1.050658106       2.732812861       1.100440304
 O        -0.315898348       2.794538809       2.102358485
 C        -0.724170706       2.505313998      -0.192706213
 H        -2.169174464       2.324538072       1.153602775
 C         2.532504188      -1.848883261      -1.055693445
 H        -1.227848404       1.645706115      -0.642767082
 H        -0.158598966       2.954150217      -0.960101851
 O         2.067196525      -1.732896604       0.232659084
 H         2.891717456      -0.880378705      -1.174932899
 H         1.736280929      -2.335047508      -1.779415888
 O         1.301601629      -2.716129023       0.780089449
 H         0.595456642      -2.830574949       0.104955706
