          12
  -21.5012697777366     
 C        -0.085365127       1.599773981       1.004875841
 O         0.680304968       2.149816061       0.419506194
 C        -1.155884780       1.201721544       1.640431423
 H        -0.371238859      -1.821823745      -0.543531835
 C         1.445733688      -1.222380104      -0.559797242
 H        -2.100391813       1.791357886       1.371612528
 H        -1.115370379       1.067159692       2.629270576
 O         0.437198086      -1.878672055       0.233560381
 H         1.925582550      -2.106354392      -1.196927711
 H         0.989031217      -0.571654499      -1.428481662
 O         2.212210459      -0.394494561       0.259381894
 H         2.161167658       0.480350292      -0.341373478
