          12
  -21.4849532433015     
 C        -0.156754166       1.236203089       0.707553422
 O        -0.429521548       1.227822690      -0.454516695
 C        -0.163534186       1.992761871       1.767278276
 H         1.757441831      -2.747056184      -0.316818812
 C         0.642089651      -1.051270238      -0.109308324
 H         0.375742463       1.729281972       2.608977522
 H        -0.292803988       3.073988464       1.532834887
 O         1.509758225      -1.918471452      -0.736829664
 H         0.171797265      -0.439715009      -0.842197927
 H        -0.127906377      -1.545102835       0.470094190
 O         1.172727545       0.013339585       0.854566422
 H         1.694641142       0.620230696       0.316894187
