          12
  -21.4960411364230     
 C        -0.382309500       1.651536151       0.041576465
 O        -0.809329353       2.054633884      -0.975100125
 C        -0.028746681       1.614229579       1.329371775
 H         1.770425052      -1.491863605      -1.288743812
 C         1.046868894      -1.673325847       0.600752828
 H        -0.705936879       1.028934413       2.035988812
 H         0.350129803       2.538754021       1.704365894
 O         1.001735743      -1.213259889      -0.721325082
 H        -0.022236512      -1.672222629       0.873634280
 H         1.444058319      -2.629227409       0.809350470
 O         1.758690337      -0.747025282       1.416429864
 H         1.284761308       0.122158798       1.455750502
