          12
  -21.4689777096163     
 C        -1.460381160      -0.067628883       0.602642665
 O        -0.555099886       0.611379497       0.951620027
 C        -2.489270452      -0.847699019       0.783295376
 H         1.612100961       1.232625543       1.117665673
 C         2.379982424       0.515071500      -0.553467623
 H        -3.274862850      -0.171173864       1.082040803
 H        -2.736338546      -1.607989267       0.101619947
 O         2.075053340       1.470400539       0.281400648
 H         2.241837759       0.910234529      -1.641312311
 H         3.450970149       0.188363715      -0.432797366
 O         1.554414703      -0.658305011      -0.350824917
 H         0.717227867      -0.214197415      -0.244021745
