          12
  -21.4981433061052     
 C         0.900210516       1.914015605       0.101476501
 O         1.462186968       2.516288808       1.011588335
 C        -0.099325303       0.810353618       0.313927840
 H         1.046020269       2.354407324      -0.899799825
 C         0.162345149      -0.518764364      -0.368883351
 H        -1.105206839       1.011214645      -0.067364951
 H        -0.237985840       0.480222420       1.348441930
 O         1.180690032      -1.335957525       0.207889893
 H         0.715079005      -0.303268406      -1.290481072
 H        -0.726210079      -1.151784565      -0.468857469
 O         0.713105265      -1.900540903       1.464675733
 H         0.016060418      -2.530503782       1.205066326
