          12
  -21.3334623003571     
 C         0.761614497       1.067309004       0.023976232
 O        -0.209714894       1.779082258      -0.033379668
 C         1.194216130       0.764013223       1.410217899
 H         1.554287248       1.150639914      -0.719434096
 C         1.678729543      -0.663740674       0.953224919
 H         0.291612745       0.677054604       1.978802112
 H         1.867504811       1.457444701       1.907926080
 O         0.834819475      -0.662875210      -0.181699477
 H         1.358560502      -1.580797691       1.551544057
 H         2.731957586      -0.799502632       0.712220100
 O        -0.380277660      -1.188251574       0.235751679
 H        -0.930336550      -0.401818490       0.501930495
