          12
  -21.3476520904795     
 C         0.762620881       1.171175384       0.214842482
 O        -0.226171365       1.567543241      -0.354854047
 C         1.069126803       0.523378831       1.614147514
 H         1.719616153       1.197272611      -0.426910772
 C         1.892695859      -0.603336443       0.792211725
 H         0.373657047      -0.101000093       2.210185610
 H         1.644115803       1.210292152       2.126887947
 O         0.818364851      -0.832051115      -0.165507816
 H         2.460380644      -1.380888867       1.428048350
 H         2.702789846      -0.062309090       0.285469202
 O        -0.548961454      -0.803937109       0.392008504
 H        -0.954552128       0.069233215       0.097033577
