          12
  -21.4986939743596     
 C         0.640258132      -0.948983508       1.764219881
 O        -0.192458013      -1.609101819       1.331155056
 C         1.606044300      -0.141401698       1.932626831
 H         2.798930275      -0.733845069      -1.154259503
 C        -1.409751176       2.332499059      -1.385358473
 H         2.505996821      -0.513288979       2.383186802
 H         1.465545285       0.929682584       1.863547489
 O        -1.529232378       2.495078380      -0.209648617
 H        -0.507902710       2.830033010      -1.867273500
 H        -1.998021361       1.747191942      -2.072976927
 O         2.603668771      -1.564523993      -0.769570320
 H         2.415054364      -1.534871081       0.192356747
