    9
 SCF done       0.00000000
N         -0.757118276918    0.539012720546   -0.529183923542
C         -0.162878091911   -0.502350919457   -0.159602183841
N         -0.695072587276   -1.820934401894   -0.420557797034
N         -1.589151078145   -2.324694441436   -0.906695551121
O          0.631054381903   -2.770923689685    0.358160284224
N          1.419794898893   -1.869781516115    0.780937352057
C          1.076958208939   -0.648700277726    0.549939639944
H         -1.635938389413    0.417752035505   -1.024490569073
H          1.688425262027    0.168655619261    0.873813026087
