    9
 SCF done      -0.00057965
N         -0.756867098038    0.539514457726   -0.528722839963
C         -0.165192743592   -0.502598373132   -0.157560251347
N         -0.693777255751   -1.821033956810   -0.422645568641
N         -1.587909961759   -2.325101611086   -0.908170440151
O          0.629906511776   -2.770899171702    0.362558233383
N          1.420355653202   -1.870154848415    0.779016075608
C          1.077129371189   -0.648498177910    0.548758714017
H         -1.636580257352    0.418613822515   -1.024009428004
H          1.689010108225    0.168192988015    0.873095782798
