    9
 SCF done       9.04354892
N         -0.661295069710    0.557858613059   -0.668639242104
C         -0.205325120681   -0.495346488102   -0.136817865978
N         -0.756443212546   -1.811798316047   -0.370002252633
N         -1.735331109083   -2.392695361472   -0.411088027557
O          0.812043215953   -2.727774744231   -0.031006310429
N          1.482080730250   -1.868377089254    0.611244514063
C          1.003303972614   -0.663613730649    0.637588920480
H         -1.463343803281    0.455083475418   -1.282675867252
H          1.500384724483    0.134698770578    1.173716409409
