    9
 SCF done       8.92533649
N         -0.661986372113    0.552366928141   -0.672502771568
C         -0.204323023577   -0.496215376458   -0.135050913874
N         -0.757039681498   -1.808005597959   -0.388623506565
N         -1.734425528898   -2.392209150032   -0.399073461346
O          0.814016818979   -2.742896882914   -0.026045082377
N          1.498900938024   -1.866454928335    0.590691204356
C          1.008831215427   -0.662072579960    0.626727220594
H         -1.477231133073    0.466691672110   -1.273606248546
H          1.489331094629    0.136831044608    1.199803837124
