    9
 SCF done       7.73867954
N         -0.667844942531    0.551463123320   -0.662717338680
C         -0.205179612825   -0.499000485737   -0.128716788743
N         -0.751405181912   -1.818482422222   -0.391807174633
N         -1.741169463353   -2.377211239455   -0.447434360074
O          0.823861642286   -2.759245754735   -0.010188143658
N          1.496279983832   -1.877080669195    0.614124915576
C          1.015146547050   -0.655328698052    0.626264869848
H         -1.498901042777    0.468503507245   -1.246146765025
H          1.505286398229    0.154417767932    1.168941063289
