    9
 SCF done       8.03652100
N         -0.677576434161    0.557499112281   -0.635101665086
C         -0.196592868094   -0.502091559791   -0.140517187768
N         -0.749275867872   -1.812246659361   -0.396835250828
N         -1.735575749514   -2.382738085294   -0.443556812174
O          0.822099031748   -2.749953688514   -0.016579904512
N          1.479207656807   -1.874630652240    0.634932591795
C          1.009231481843   -0.659599015452    0.630898120925
H         -1.485623857731    0.460548558840   -1.253873171404
H          1.510180934874    0.151247118631    1.142953556851
