    9
 SCF done       8.89682576
N         -0.666552685139    0.557874732180   -0.658398119993
C         -0.199473359939   -0.500480589171   -0.142110260196
N         -0.752929231358   -1.812838842293   -0.398496544707
N         -1.733870643208   -2.392466442492   -0.411900599850
O          0.821982806152   -2.749752901861   -0.021080024938
N          1.492228406242   -1.873408458388    0.609761523788
C          1.009620258372   -0.660968504618    0.624013955366
H         -1.486432388226    0.474747818519   -1.255450009422
H          1.491501165004    0.145328317324    1.175980357752
