    9
 SCF done       9.03589293
N         -0.662955020735    0.556442871497   -0.664873325649
C         -0.202950153509   -0.498576474000   -0.137864925216
N         -0.756830160258   -1.811257973744   -0.399531123609
N         -1.735970953252   -2.394285923331   -0.397215838076
O          0.830018564251   -2.750972480728   -0.037225857150
N          1.496029950507   -1.876413742352    0.604378350589
C          1.008761208965   -0.659347205866    0.628604733509
H         -1.486561217283    0.477106306299   -1.260389954456
H          1.486532109313    0.145339751325    1.186438217657
