    9
 SCF done      10.23515897
N         -0.655077775629    0.557781792070   -0.676348703328
C         -0.208661238461   -0.495611784892   -0.136327373264
N         -0.765698384373   -1.809467948544   -0.391331814262
N         -1.737119002785   -2.403000025400   -0.349713003747
O          0.847262651748   -2.742406422192   -0.083063756224
N          1.496551281580   -1.875408396876    0.590577570361
C          1.002240224464   -0.661535204006    0.633353366982
H         -1.473848933504    0.480991465305   -1.280128364246
H          1.470425504960    0.136691653633    1.215302355427
