    9
 SCF done      13.00714242
N         -0.640815626561    0.562630195198   -0.692694430320
C         -0.217649133420   -0.491062108070   -0.137712344608
N         -0.783440559535   -1.802657286336   -0.374477534893
N         -1.727203082310   -2.428814362463   -0.252075240744
O          0.866363095284   -2.715124092120   -0.162040353244
N          1.502207537529   -1.872153054532    0.555849421375
C          0.986757614640   -0.670092079319    0.645777036362
H         -1.441337521669    0.492074360092   -1.323133161665
H          1.431192004042    0.113233556851    1.262826885437
