    9
 SCF done       0.01187174
N         -0.754553057946    0.539965739100   -0.531185634638
C         -0.168512640412   -0.503328344002   -0.154311016642
N         -0.694505456673   -1.821194389083   -0.422400059915
N         -1.591722996794   -2.325430796705   -0.902306076476
O          0.634045191340   -2.771467831332    0.359616100901
N          1.422865739018   -1.870421149805    0.773945089702
C          1.076050912734   -0.648023784017    0.549560979004
H         -1.633782785300    0.419747633302   -1.028944060555
H          1.686189422031    0.168188051643    0.878344956318
