    9
 SCF done      16.60386056
N         -0.604767983981    0.567032669418   -0.740641354617
C         -0.233116143540   -0.483794532697   -0.147266915356
N         -0.813591429925   -1.788486081922   -0.354925598396
N         -1.688885119725   -2.473544832779   -0.112589205399
O          0.887623423503   -2.676603800792   -0.270919845945
N          1.505515054320   -1.870843961067    0.513620527355
C          0.969933724977   -0.682517799296    0.655111469873
H         -1.405778310021    0.519892471199   -1.367094911531
H          1.359141112292    0.076900997135    1.347026111618
