    9
 SCF done      17.39515500
N         -0.593723365661    0.566372502993   -0.752298340294
C         -0.233546230294   -0.480838281422   -0.166881007853
N         -0.812664310946   -1.790345805122   -0.361744662404
N         -1.664804915888   -2.485242219137   -0.063671282476
O          0.885733868811   -2.667361410646   -0.290528881479
N          1.496756120155   -1.865015167619    0.506580486547
C          0.966712425722   -0.680016085146    0.642970128639
H         -1.403711662004    0.528110677127   -1.365803645629
H          1.335322398004    0.062370918172    1.373697482649
