    9
 SCF done      17.29832673
N         -0.607694787240    0.566853635613   -0.749574170871
C         -0.228838911592   -0.483107064776   -0.174145605342
N         -0.783653638601   -1.803500688947   -0.341043504116
N         -1.678482283519   -2.466175034672   -0.079754407987
O          0.872824029098   -2.672197769738   -0.292202468614
N          1.504098094071   -1.860064575691    0.496266353137
C          0.977076869885   -0.673538476531    0.640406787962
H         -1.412129043514    0.521263628149   -1.369223292707
H          1.332873999510    0.058501475693    1.391590586439
