    9
 SCF done      19.39554987
N         -0.588154217402    0.555438035614   -0.778096435473
C         -0.239300231593   -0.482563390820   -0.167220014325
N         -0.793300632545   -1.804383503868   -0.312313353759
N         -1.684905781211   -2.472220422757   -0.021428839128
O          0.881053287960   -2.631823872644   -0.355207230769
N          1.509138727857   -1.851878425269    0.470114076361
C          0.974608324987   -0.674859512947    0.651903288215
H         -1.392230960665    0.514163183994   -1.398619236861
H          1.309165810612    0.036163037796    1.433188023540
