    9
 SCF done      21.53425843
N         -0.567638040494    0.546540891446   -0.800387810763
C         -0.250698561220   -0.483625747734   -0.157550360736
N         -0.813411471388   -1.800739648572   -0.290573953455
N         -1.675527130766   -2.485624874928    0.031808784170
O          0.888893649021   -2.593666662341   -0.411294652911
N          1.499271754996   -1.848460989676    0.451235744636
C          0.971031375283   -0.674948387256    0.662898689073
H         -1.366689309335    0.508363612482   -1.426781672211
H          1.290842061902    0.020196935779    1.462965509798
