    9
 SCF done      26.72415938
N         -0.552732909660    0.548009287304   -0.816307517067
C         -0.287411070628   -0.494562728732   -0.173732110335
N         -0.973270723259   -1.732827314953   -0.274269998727
N         -1.681605964593   -2.475382304873    0.197264171957
O          1.122796970186   -2.630960008656   -0.477584698384
N          1.549168406525   -1.811822845317    0.396294025199
C          0.926946383544   -0.720463164452    0.654658941265
H         -1.337268061530    0.549500511588   -1.457629797875
H          1.209451297615   -0.043456302908    1.473627261768
