    9
 SCF done      20.65186955
N         -0.483039679633    0.428484377277   -0.936693761734
C         -0.401023070024   -0.517664336688   -0.114524971943
N         -1.254804701301   -1.611674858049   -0.037978702603
N         -1.979219145325   -2.209396519781    0.603180160915
O          1.753016724956   -2.395341871895   -0.797214069257
N          1.703097268379   -1.654335512648    0.181547486794
C          0.832164244614   -0.879556181662    0.657572211697
H         -1.206759449554    0.436949626995   -1.646505237217
H          1.012642135888   -0.409429594349    1.612937160949
