    9
 SCF done      19.17496641
N         -0.461056593800    0.382670518423   -0.970236033136
C         -0.405181213863   -0.552025136531   -0.135945915116
N         -1.303484885631   -1.591584767118    0.006108496026
N         -2.055530903284   -2.119714843896    0.688088224142
O          1.880092755185   -2.309534175059   -0.847594326230
N          1.730228012251   -1.627579795917    0.158924696853
C          0.825665420740   -0.912390128963    0.647034216946
H         -1.201685849311    0.418714153577   -1.659274119432
H          0.967027585712   -0.500520695416    1.635215037546
