    9
 SCF done       0.04711823
N         -0.747576885364    0.539852821043   -0.539658777959
C         -0.172055699969   -0.506239428304   -0.151138170562
N         -0.699968996900   -1.820928522715   -0.417208261109
N         -1.607507435821   -2.325005804970   -0.875885538354
O          0.652674047350   -2.772667874736    0.333469182749
N          1.426513899111   -1.870266111057    0.766085187793
C          1.070450692543   -0.647333373403    0.557544252128
H         -1.621805976840    0.420863995845   -1.046117813028
H          1.675350683889    0.169759427397    0.895230216142
