    9
 SCF done      17.65138419
N         -0.384469938591    0.257984338392   -1.059441691696
C         -0.432280812541   -0.630845672634   -0.173868850944
N         -1.467666849906   -1.498868681512    0.057428550080
N         -2.151868717856   -1.936603390568    0.863364481301
O          2.201285974995   -2.039798694767   -0.910222669760
N          1.793961001251   -1.536428525063    0.124387014232
C          0.793035390854   -0.999479474301    0.640519034585
H         -1.154699618969    0.343957651531   -1.710120623424
H          0.778777898763   -0.771882421778    1.690275033225
