    9
 SCF done      20.94639399
N         -0.406903791385    0.238549050571   -1.062842084875
C         -0.426680835691   -0.653496489804   -0.175964345347
N         -1.447683917745   -1.524403119935    0.076842737149
N         -2.262557875305   -1.807653158771    0.858260640336
O          2.290354450079   -1.986915646514   -0.899305974493
N          1.830068333126   -1.526142039205    0.112251953125
C          0.812711699258   -1.014051564647    0.622548811387
H         -1.196344864252    0.303710517422   -1.693186595123
H          0.783111129915   -0.841562419917    1.683715135341
