    9
 SCF done      26.77822148
N         -0.384824739972    0.185914685730   -1.116087759100
C         -0.417427608153   -0.665644847224   -0.189684859130
N         -1.494767173408   -1.433246646798    0.137090099206
N         -2.269941772076   -1.771909117202    0.908199332044
O          2.342098254308   -1.913098559544   -0.909179304721
N          1.864741210650   -1.496449233040    0.108884734810
C          0.797151320059   -1.042656309780    0.606479029686
H         -1.207914745320    0.268197892889   -1.700377959183
H          0.746959582013   -0.943072735730    1.676996963988
