    9
 SCF done      21.14610978
N         -0.383913360997    0.141803834207   -1.124123231751
C         -0.431888083973   -0.690108051051   -0.161777314491
N         -1.505424685119   -1.421791178670    0.181226790483
N         -2.384101420479   -1.656098407105    0.874367837113
O          2.458748216155   -1.737676976654   -0.922228789856
N          1.877069437948   -1.468571084246    0.091357195621
C          0.809330129012   -1.076425284817    0.623777831140
H         -1.190337702968    0.176225345335   -1.743315215359
H          0.726591798320   -1.079323067800    1.703035174598
