    9
 SCF done      19.36812960
N         -0.369907262473    0.085580125356   -1.164255548021
C         -0.421874971683   -0.704510044716   -0.161758343961
N         -1.519608799975   -1.365249881869    0.231633741803
N         -2.426233852419   -1.522130249025    0.913762220444
O          2.539065856625   -1.575200261676   -0.914035087883
N          1.884538768287   -1.464246516358    0.092080187261
C          0.801227938083   -1.128983701419    0.615954563449
H         -1.193110314340    0.117465942464   -1.765444538751
H          0.681976965895   -1.254690283457    1.674383083258
