    9
 SCF done      19.01928639
N         -0.352539834445    0.036605401821   -1.196418977120
C         -0.412139616981   -0.699752070912   -0.153120330012
N         -1.529228169959   -1.283093715861    0.281499337383
N         -2.444684545545   -1.469134182597    0.938240365030
O          2.576135781512   -1.438459746571   -0.908744545032
N          1.884937109979   -1.460576864101    0.084464311288
C          0.794826513357   -1.161111288121    0.608780694072
H         -1.195875353397    0.069152959172   -1.781993392277
H          0.654642443578   -1.405595363731    1.649612814368
