    9
 SCF done      19.68405513
N         -0.335983303528    0.014160930732   -1.224574487196
C         -0.420134415332   -0.702493160465   -0.166087883103
N         -1.580008118731   -1.220543565084    0.247976015103
N         -2.399356253623   -1.431204776738    1.041669233880
O          2.638267897866   -1.335159496160   -0.851778912776
N          1.882271078543   -1.429453708875    0.092293063057
C          0.766570179403   -1.207604356132    0.591680249065
H         -1.173485294379    0.044581059098   -1.808937149950
H          0.597932557781   -1.544247797177    1.600080149620
