    9
 SCF done       0.87504237
N         -0.735927147301    0.542816278985   -0.556506904420
C         -0.169422337329   -0.508206953680   -0.153115525492
N         -0.700052899508   -1.816382331333   -0.429558213908
N         -1.637294916814   -2.333242910080   -0.812794654007
O          0.680370108844   -2.781029386939    0.292053306937
N          1.436568065101   -1.873112734767    0.754005482185
C          1.061801781151   -0.650002984774    0.570926361780
H         -1.605651136050    0.431977325178   -1.070465570098
H          1.645682809706    0.175218826410    0.927775994723
