    9
 SCF done      20.14893775
N         -0.323833247781   -0.061276240775   -1.241026268251
C         -0.412638157798   -0.748259630886   -0.167066412233
N         -1.595662229437   -1.235559268284    0.253726436904
N         -2.438655822251   -1.288181424065    1.045260471539
O          2.679391079854   -1.193318481042   -0.819582497008
N          1.912239925035   -1.390698029852    0.087263108263
C          0.770085881984   -1.257566249522    0.589361434273
H         -1.201103451146    0.023355804002   -1.781940152743
H          0.586250349539   -1.660461350377    1.556324156755
