    9
 SCF done      22.07602419
N         -0.368220656552   -0.022147417706   -1.220641117615
C         -0.418798558811   -0.726579890707   -0.144546409426
N         -1.581021740814   -1.228867815211    0.289928994894
N         -2.521939031257   -1.286241088802    0.951858310641
O          2.801022649598   -1.181895270297   -0.764615628295
N          1.914012178518   -1.450372466288    0.055537474949
C          0.780463978005   -1.265134392052    0.560109400863
H         -1.242819873286    0.017052378783   -1.769437861321
H          0.613375382597   -1.667778908420    1.564127112909
