    9
 SCF done      21.24447421
N         -0.343847833261   -0.041279456739   -1.216874882130
C         -0.410458042801   -0.725585402609   -0.133941150795
N         -1.570731749788   -1.222896153148    0.298094465501
N         -2.519681471675   -1.284531560675    0.918824487039
O          2.724209815790   -1.179797632566   -0.809072059474
N          1.916796261340   -1.377486256694    0.072816568237
C          0.784504290146   -1.258825132721    0.579001540309
H         -1.202040722884   -0.006968924607   -1.775650763702
H          0.597323781132   -1.714594350840    1.589122072616
