    9
 SCF done      23.38329609
N         -0.393665431102   -0.023520595710   -1.227767623582
C         -0.424224520153   -0.724201612121   -0.147853375923
N         -1.562251539599   -1.244496122215    0.307581683018
N         -2.530673727589   -1.319806184713    0.901347493243
O          2.843508548808   -1.286265869126   -0.723596283728
N          1.920282622268   -1.379890577589    0.057027604602
C          0.789352232322   -1.234181543164    0.555072709915
H         -1.286918680741    0.031150544389   -1.735716470804
H          0.620664823986   -1.630752910450    1.536224541059
