    9
 SCF done      26.24323809
N         -0.362177538670   -0.051358038108   -1.224268465222
C         -0.422912826822   -0.738120839617   -0.132629659804
N         -1.570972303100   -1.223417054832    0.328022017383
N         -2.553154087039   -1.298531473022    0.889302287405
O          2.818991861142   -1.223262136036   -0.771776256932
N          1.910667108429   -1.371476931246    0.046377481974
C          0.783658573980   -1.273985281563    0.570536461415
H         -1.244635678494    0.025067835168   -1.749382140837
H          0.616609218574   -1.656880951445    1.566138552219
