    9
 SCF done      22.61708771
N         -0.376273770566   -0.058529261682   -1.221131382145
C         -0.420301583774   -0.733891970325   -0.131844349882
N         -1.569154716483   -1.212105866135    0.343853483168
N         -2.553849670896   -1.270244313611    0.869632089925
O          2.816733900172   -1.189818577761   -0.726707872607
N          1.916684711149   -1.398636154933    0.032686325484
C          0.784073498481   -1.303140207420    0.539628141010
H         -1.260374021384    0.016495841723   -1.735464178260
H          0.638535981202   -1.662094360656    1.551668021007
