    9
 SCF done      23.27005054
N         -0.374660940666   -0.057104854353   -1.220028938100
C         -0.423863970754   -0.735637517696   -0.130834490758
N         -1.573450095081   -1.223047577732    0.335525764201
N         -2.557059880200   -1.266435221887    0.878310029198
O          2.828544408229   -1.200824406769   -0.724858464749
N          1.912918981770   -1.383344339986    0.028447428008
C          0.782857250995   -1.301863548392    0.541234131855
H         -1.260468951570    0.019121558581   -1.738053332594
H          0.641257525275   -1.662828962367    1.552578150639
