    9
 SCF done      27.05127901
N         -0.488504018352   -0.180544770142   -1.293017611575
C         -0.447851060425   -0.899042227546   -0.222225017975
N         -1.548384827250   -1.128747397981    0.504502811257
N         -2.633545001254   -1.312963397496    0.764033801951
O          3.065955660336   -1.342899123791   -0.344147479203
N          1.875043154309   -1.331013712572   -0.227232916999
C          0.812507615702   -1.263483343619    0.429554594295
H         -1.396143894428    0.208410135492   -1.550747426282
H          0.736996699364   -1.561681033044    1.461599522131
