    9
 SCF done       0.32871185
N         -0.744949349297    0.540512076086   -0.543482509708
C         -0.165477481751   -0.508271694417   -0.157993499794
N         -0.697866863506   -1.818194293484   -0.425765464122
N         -1.619179327860   -2.327234023855   -0.851817787283
O          0.661677949743   -2.775197453771    0.317218701571
N          1.427640326467   -1.871174973259    0.767434627677
C          1.067185334722   -0.649160745025    0.563694446969
H         -1.616696338458    0.423775805676   -1.050865237798
H          1.663740077841    0.172980431047    0.903897000288
