    9
 SCF done      23.36531066
N         -0.518409627456   -0.143660389381   -1.270926642360
C         -0.438682187398   -0.848093299110   -0.198330303476
N         -1.536021621419   -1.119133110135    0.512223684099
N         -2.627639203435   -1.363108084893    0.721098406662
O          3.062827188967   -1.436004059945   -0.239329969061
N          1.858994664565   -1.314296885611   -0.314774296675
C          0.824846325635   -1.239318185625    0.404362764739
H         -1.435575123717    0.178412471238   -1.548625871103
H          0.785733912258   -1.526763327237    1.456622504876
