    9
 SCF done      21.60938524
N         -0.535723881198   -0.115886820872   -1.273370585193
C         -0.431228757994   -0.818030298325   -0.201803079511
N         -1.527286220409   -1.129853497457    0.499427260212
N         -2.607027440096   -1.395693012014    0.738290055012
O          3.049830768031   -1.490778625996   -0.170881693075
N          1.860828698731   -1.316562164865   -0.345571442658
C          0.829035219723   -1.213437499072    0.390250666699
H         -1.463119953535    0.174921264696   -1.554552222432
H          0.800765894846   -1.506644216896    1.440531318747
