    9
 SCF done      21.48467919
N         -0.535748744961   -0.115354726699   -1.277610032023
C         -0.431616720636   -0.817389801411   -0.205676648711
N         -1.527601476034   -1.131563718907    0.491822020581
N         -2.600936443084   -1.397017634403    0.751000731425
O          3.049274204432   -1.491032489336   -0.164605263654
N          1.861886468504   -1.317634174179   -0.344183555658
C          0.826929245219   -1.213532207641    0.387629969680
H         -1.463574895378    0.177095672467   -1.554891688793
H          0.797462689937   -1.505535790591    1.438834744753
