    9
 SCF done      21.43484476
N         -0.544231170598   -0.109267532840   -1.281476155779
C         -0.428749174957   -0.814709012035   -0.211918568318
N         -1.524231316564   -1.137861089069    0.485516854430
N         -2.598737393794   -1.386143964619    0.765092186262
O          3.053181749101   -1.493643752271   -0.136093466941
N          1.868023105949   -1.316419352045   -0.348608562503
C          0.827573200669   -1.212527986575    0.379593574615
H         -1.477132147476    0.173355122632   -1.556325936673
H          0.800377475668   -1.514747303979    1.426540352807
