    9
 SCF done      21.42950820
N         -0.546748422604   -0.109222463684   -1.282357425676
C         -0.429009834742   -0.815424622102   -0.213308884360
N         -1.522395442244   -1.144756455861    0.483865868969
N         -2.599632890718   -1.375938997685    0.769261574949
O          3.053773157068   -1.492730865471   -0.129565433992
N          1.871912719100   -1.311882135667   -0.347275351429
C          0.827080182457   -1.212479258782    0.376420484026
H         -1.479594790103    0.172117128259   -1.557242148440
H          0.800689649686   -1.521647199708    1.422521593852
