    9
 SCF done      21.42340109
N         -0.548527677560   -0.109252598295   -1.282601185722
C         -0.428411374336   -0.814729904895   -0.213538284231
N         -1.520927472906   -1.144947055369    0.485359945822
N         -2.599092469010   -1.374698465690    0.767992844388
O          3.053428556572   -1.494140646728   -0.124405246128
N          1.872517063421   -1.310924604360   -0.349951109632
C          0.827927470215   -1.212047661336    0.375011468475
H         -1.481919801995    0.171454123693   -1.556350145760
H          0.801080033499   -1.522678057620    1.420801990588
