    9
 SCF done      21.42248780
N         -0.548849151813   -0.109548294693   -1.282862507607
C         -0.428374319930   -0.814578730010   -0.213651223309
N         -1.520575803516   -1.144268154938    0.485931472755
N         -2.598531454661   -1.375097061026    0.767945618634
O          3.053371732541   -1.494408481219   -0.123254656260
N          1.872753008904   -1.310607753226   -0.350649457559
C          0.828177001161   -1.212330478260    0.374567077954
H         -1.482221141094    0.171710783073   -1.556104799092
H          0.800324456409   -1.522836700300    1.420398752285
