    9
 SCF done      21.42029894
N         -0.550025294138   -0.108548240401   -1.283278109573
C         -0.428308835185   -0.813808298371   -0.214533233219
N         -1.520089362766   -1.145271667610    0.484255172551
N         -2.596147254858   -1.376469306912    0.771760121942
O          3.053025994672   -1.496457086325   -0.117871503973
N          1.874156672087   -1.310280046577   -0.352604743377
C          0.828474222179   -1.212790754715    0.372212165510
H         -1.483198082352    0.173472023432   -1.556195472317
H          0.798186268261   -1.521811493121    1.418575880055
