    9
 SCF done      21.41878926
N         -0.551305527862   -0.107195446085   -1.282768234641
C         -0.428164373367   -0.813774924569   -0.215040657708
N         -1.519888953693   -1.146812375422    0.483302465223
N         -2.595877196617   -1.375564925028    0.772730561721
O          3.053191777023   -1.497492913102   -0.114598153837
N          1.875192980840   -1.311060118130   -0.353127551060
C          0.828433680911   -1.212129575996    0.370721859226
H         -1.484641393169    0.173341865039   -1.556060882226
H          0.799133334033   -1.521276457407    1.417160870902
