    9
 SCF done      21.41797385
N         -0.550828144376   -0.106777062214   -1.282270044124
C         -0.428085529315   -0.813405443057   -0.214398939510
N         -1.520589416306   -1.147647586178    0.482255732272
N         -2.596653972234   -1.375049372723    0.772413135722
O          3.052356257041   -1.497879095122   -0.114820352693
N          1.874533832372   -1.310636772906   -0.353055428449
C          0.827942984758   -1.211692558978    0.371165122311
H         -1.484384662811    0.172672248089   -1.556200523664
H          0.801782978770   -1.521549227611    1.417231575736
