    9
 SCF done       1.88149801
N         -0.729349943939    0.548231213649   -0.564414422849
C         -0.172339085656   -0.508407126576   -0.148425332585
N         -0.706157942132   -1.816699827771   -0.426529209939
N         -1.662283053919   -2.339781527383   -0.748769556168
O          0.704205789402   -2.779180204177    0.240571055738
N          1.449744613648   -1.878913856989    0.731299748564
C          1.052352033225   -0.653510639950    0.584980914272
H         -1.579736221305    0.435465530825   -1.110815353688
H          1.619638138576    0.180831567472    0.964422434555
