    9
 SCF done       4.77127540
N         -0.692909874494    0.562343597282   -0.620286725916
C         -0.189396646711   -0.501304549563   -0.146600841862
N         -0.727316319650   -1.820660398976   -0.406312222453
N         -1.711770830428   -2.369001268006   -0.575585568311
O          0.777694071037   -2.773558570104    0.107103462998
N          1.465494827428   -1.881136797063    0.677373262749
C          1.028624693756   -0.655274007817    0.608751054197
H         -1.532725782770    0.460244195189   -1.190758265373
H          1.558380189933    0.166382928160    1.068636121669
