    9
 SCF done      29.19570957
N         -0.511307993935   -0.155973010791   -1.286582489050
C         -0.444077468425   -0.856234987319   -0.206627242585
N         -1.532711004743   -1.087077227712    0.543218526079
N         -2.626043477309   -1.415386008455    0.702173829416
O          3.068996288303   -1.416992536588   -0.276191438251
N          1.853434032098   -1.368858356650   -0.301846261284
C          0.822255898678   -1.213039002888    0.423259250755
H         -1.423680677601    0.223282259350   -1.536938480060
H          0.769208730834   -1.521685999748    1.461854582680
