    9
 SCF done      21.74211704
N         -0.530495293950   -0.139088002387   -1.269377508621
C         -0.433318463968   -0.833513875203   -0.189336419079
N         -1.535308477131   -1.144270679227    0.497653935060
N         -2.631831639683   -1.319477865824    0.753242163830
O          3.049686082026   -1.448183474777   -0.158853179116
N          1.864205213874   -1.280503312282   -0.360830980743
C          0.831176913454   -1.232084227191    0.387772244436
H         -1.456345714196    0.152152854932   -1.561413925455
H          0.818305707573   -1.566996288742    1.423463947387
