          12
  -21.5473634797802     
 C         2.200214314       0.642272959       1.353833097
 O         2.166591000       0.441379917       2.535392902
 C         1.671798432      -0.446598705       0.472092783
 H         2.731827219       1.478404472       1.012808140
 C         0.621168870       0.222486668      -0.360962113
 H        -3.192210176      -0.978521644      -0.274896722
 H         2.427013167      -0.892153575      -0.253317570
 O         0.776301584       1.236800479      -0.989016773
 H         1.217373503      -1.242260389       1.055921090
 H        -0.182734840      -0.492874288      -0.660996468
 O        -2.990917900      -1.835111246      -0.772257726
 H        -2.610421438      -1.677637261      -1.608707838
