          12
  -21.3336650179436     
 C         1.081046224       0.906373988       0.610321963
 O         1.974731446       0.875780509       1.625082721
 C        -0.517716851       0.763330224       0.581404116
 H         1.544380900       1.355143973      -0.347668848
 C        -0.255530551       0.108295880      -0.836623848
 H        -1.189567309       1.614017544       0.848526525
 H        -0.712453882      -0.123863712       1.245078361
 O         0.963890923      -0.403322882      -0.267227764
 H        -0.045625599       0.925071770      -1.409658020
 H        -0.714819435      -0.739798268      -1.397231695
 O         0.532435128      -1.435476505       0.588783692
 H         1.954393148       0.816373449       2.638200663
