          12
  -21.3930068646776     
 C         1.198500116       1.839458928       0.763926365
 O         1.804918488       2.249213359       1.901129689
 C         0.580861981       0.351992940       1.034313334
 H         0.914973727       2.722221107       0.068734114
 C        -0.265527959      -0.138347495      -0.013891105
 H         0.255907343       0.293492282       2.043444048
 H         1.434520917      -0.317328076       1.124364558
 O         0.288798092      -1.165967148      -0.924987142
 H        -0.431587243       0.759341960      -0.600630913
 H        -1.032337809      -0.591497070       0.572425591
 O         0.110619925      -2.446849771      -0.707475577
 H         1.881095352       1.531971183       2.573155775
