          12
  -21.3649832286036     
 C         1.379948545       1.261619788       1.712003561
 O         1.239154638       2.564777000       1.707276768
 C         1.153573403       0.215162205       0.584334253
 H         1.881353895       0.894012915       2.539501950
 C        -0.076653762       0.057275476      -0.263663050
 H         1.098873704      -0.615965441       1.233217796
 H         2.041629349       0.241117864       0.001440378
 O        -0.398899478      -1.431092192      -0.205269027
 H         0.366935367       0.345577449      -1.302278950
 H        -0.795461527       0.732855222       0.256160515
 O         0.199282508      -2.186109453      -1.204009840
 H         1.755989064       2.775629735       0.796823686
