          12
  -21.3878349032354     
 C         1.794135826       1.214284800       1.183878834
 O         0.699889545       2.065834251       1.200824123
 C         1.180109372      -0.084542576       1.434933297
 H         2.750670492       1.614001500       1.160976961
 C         0.206805687      -0.014690497      -0.016683989
 H         0.747380189      -0.093147431       2.471852035
 H         1.839984124      -0.990688465       1.372587463
 O        -0.372542861      -1.180056800      -0.319990416
 H         0.898850845       0.320041712      -0.695400682
 H        -0.492606435       0.757788434       0.346822802
 O         0.126504833      -1.655598720      -1.387280150
 H         0.836525874       2.855483464       1.745808988
