          12
  -21.3929678496591     
 C         1.704462975       1.421540011       0.935211419
 O         1.497295169       2.396337154       1.887358385
 C         0.621605518       0.317601126       1.065539607
 H         2.482702945       1.422227837       0.097364200
 C        -0.275869143      -0.154210732      -0.119039240
 H        -0.242493316       0.636454596       1.687458885
 H         0.853147851      -0.594726209       1.650545924
 O         0.059518896      -1.586818416      -0.188391363
 H        -0.036907620       0.364393550      -1.031236809
 H        -1.324371099       0.034959950       0.335892243
 O         0.238649729      -1.901252919      -1.559144829
 H         0.828535576       2.153978153       2.733003962
