          12
  -21.4842268959152     
 C         1.378541886      -0.214221015       1.091121537
 O         0.741204987       0.343029505       1.888033243
 C         0.954843304      -0.040628021      -0.557234388
 H        -2.257379217      -0.122417811      -0.014237211
 C        -0.541451734       0.564758819      -0.720515817
 H         1.495356389      -0.848173177      -1.045758662
 H         1.515792363       0.847749359      -0.740955288
 O        -1.795419700      -0.009568565      -1.172548446
 H        -0.477832314       1.358613046      -1.557132061
 H        -0.696535752       0.895364608       0.337252680
 O         2.995169143      -0.422789601       1.626255659
 H         2.608428226      -0.237004790       2.412647160
