          12
  -21.5343370339886     
 C         1.259423611       0.058537926       0.884453023
 O         1.730357986      -0.830623159       0.255310199
 C        -0.258664030       0.428383789       0.993428503
 H         0.635410829      -0.417348702      -1.605281839
 C        -0.752141236       0.286906902      -0.505776819
 H        -0.399053487       1.477548590       1.428227088
 H        -0.835947712      -0.386538120       1.604171817
 O        -0.180192343      -0.321119049      -1.515859395
 H        -0.953747559       1.248927444      -0.890873513
 H        -1.785233791      -0.031853100      -0.250607376
 O         1.883649382       0.593538392       2.026975274
 H         2.727717341       0.960772425       2.243396835
