%nprocshared=4
%mem=8GB
# UwB97XD/Def2TZVP  

something title

0 1
N -0.497626 -0.170716 -1.290444
C -0.446342 -0.881919 -0.215986
N -1.542115 -1.112079 0.519989
N -2.630544 -1.353932 0.739290
O 3.067172 -1.372536 -0.316965
N 1.866400 -1.346152 -0.257078
C 0.816407 -1.243306 0.427036
H -1.407159 0.214359 -1.545224
H 0.749882 -1.545683 1.461702

