%nprocshared=4
%mem=8GB
# UwB97XD/Def2TZVP  

something title

0 1
N -0.509500 -0.159816 -1.281198
C -0.440585 -0.866278 -0.205781
N -1.541847 -1.136509 0.501078
N -2.632688 -1.316221 0.758638
O 3.057821 -1.395541 -0.251500
N 1.869624 -1.305759 -0.294032
C 0.821842 -1.247784 0.408663
H -1.426245 0.180281 -1.556081
H 0.777651 -1.564339 1.442532

