%nprocshared=4
%mem=8GB
# UwB97XD/Def2TZVP  

something title

0 1
N -0.530495 -0.139088 -1.269378
C -0.433318 -0.833514 -0.189336
N -1.535308 -1.144271 0.497654
N -2.631832 -1.319478 0.753242
O 3.049686 -1.448183 -0.158853
N 1.864205 -1.280503 -0.360831
C 0.831177 -1.232084 0.387772
H -1.456346 0.152153 -1.561414
H 0.818306 -1.566996 1.423464

