%nprocshared=4
%mem=8GB
# UwB97XD/Def2TZVP  

something title

0 1
N -0.526296 -0.143234 -1.271742
C -0.434772 -0.840067 -0.192625
N -1.536616 -1.142718 0.498339
N -2.632003 -1.318826 0.754321
O 3.051313 -1.437655 -0.177383
N 1.865289 -1.285554 -0.347471
C 0.829310 -1.235224 0.391950
H -1.450326 0.157779 -1.560347
H 0.810175 -1.566465 1.427278

