%nprocshared=4
%mem=8GB
#irc=(reverse, calcfc, maxpoint=100, stepsize=5) UwB97XD/Def2TZVP 

something title

0 1
N 0.52002 1.77725 -0.00000
C 0.30195 0.57711 0.00001
N -2.77246 -0.62113 -0.00000
N -3.68456 -0.02833 -0.00000
O 2.99529 -0.40129 -0.00000
N 1.80794 -0.57802 -0.00001
C 0.57509 -0.79953 0.00001
H -0.28205 2.39878 0.00001
H -0.03903 -1.70231 0.00002

