%nprocshared=4
%mem=8GB
# UwB97XD/Def2TZVP  

something title

0 1
N -0.495345 -0.173173 -1.291087
C -0.446719 -0.886200 -0.217546
N -1.543683 -1.116246 0.516118
N -2.631295 -1.343690 0.745476
O 3.066868 -1.365127 -0.323761
N 1.868560 -1.342367 -0.249617
C 0.815432 -1.248350 0.427666
H -1.404405 0.212872 -1.546605
H 0.746660 -1.549683 1.461676

