%nprocshared=4
%mem=8GB
#opt UwB97XD/Def2TZVP 

something title

0 1
N 0.46530 1.79944 -0.00003
C 0.32771 0.64175 0.00002
N -2.78184 -0.61741 -0.00000
N -3.69049 -0.01958 -0.00000
O 2.82546 -0.17631 -0.00000
N 1.96154 -1.02523 -0.00001
C 0.60756 -0.67444 0.00001
H 0.38831 2.79166 0.00022
H -0.11392 -1.46895 -0.00001

