%nprocshared=4
%mem=8GB
# UwB97XD/Def2TZVP  

something title

0 1
N -0.505301 -0.163962 -1.283562
C -0.442038 -0.872831 -0.209070
N -1.543154 -1.134957 0.501763
N -2.632860 -1.315569 0.759717
O 3.059448 -1.385013 -0.270030
N 1.870708 -1.310810 -0.280672
C 0.819975 -1.250924 0.412842
H -1.420225 0.185907 -1.555014
H 0.769520 -1.563807 1.446345

