%nprocshared=4
%mem=8GB
#opt UwB97XD/Def2TZVP geom(modredundant, gic) 

something title

0 1
N -0.488504 -0.180545 -1.293018
C -0.447851 -0.899042 -0.222225
N -1.548385 -1.128747 0.504503
N -2.633545 -1.312963 0.764034
O 3.065956 -1.342899 -0.344147
N 1.875043 -1.331014 -0.227233
C 0.812508 -1.263483 0.429555
H -1.396144 0.208410 -1.550747
H 0.736997 -1.561681 1.461600


