    9
 SCF done       0.00000000
N         -0.812028693633    0.587764314472   -0.300770683645
C         -0.210145062137   -0.484409466310   -0.053466175320
N         -0.779968445934   -1.773953709559   -0.377508455704
N         -1.711001886244   -2.230390216725   -0.840512188412
O          0.583785487917   -2.794950442269    0.230079596927
N          1.412615855970   -1.937976226315    0.663931352773
C          1.073801805204   -0.698692728434    0.553281423065
H         -1.724520863272    0.516309001215   -0.740464638938
H          1.718779702430    0.084128639426    0.896459963455
