    9
 SCF done       4.84879670
N         -0.758166106641    0.611666820565   -0.386946281514
C         -0.233102646328   -0.487356288890   -0.042752749990
N         -0.806810565430   -1.774110631854   -0.364722057134
N         -1.811063039791   -2.292851633688   -0.524138213576
O          0.698904933244   -2.781870763815   -0.005861541734
N          1.453625142647   -1.929027472256    0.552660378266
C          1.029871145315   -0.706864729192    0.614693258080
H         -1.632829022334    0.565777781215   -0.907668532876
H          1.610888059518    0.062466083515    1.095765934778
