    9
 SCF done       4.97411648
N         -0.758371802695    0.607199753533   -0.390263092376
C         -0.238800727617   -0.488204947124   -0.024807832357
N         -0.811167954072   -1.775426866948   -0.357860428637
N         -1.816962102021   -2.286492515757   -0.520663341554
O          0.709443103288   -2.777360110549   -0.027222076953
N          1.462015583235   -1.937690853726    0.551232122170
C          1.028801284406   -0.707662893440    0.624599192841
H         -1.631848449288    0.566023570006   -0.916743095612
H          1.608208965064    0.067444029705    1.092758746679
