    9
 SCF done       9.17279936
N         -0.732629734627    0.614348368439   -0.433261933159
C         -0.249389415723   -0.483357319128   -0.026134275862
N         -0.836788398453   -1.766506107010   -0.333724726293
N         -1.828058235413   -2.328694139139   -0.347898897314
O          0.750107081790   -2.739253958072   -0.168558729667
N          1.478465318408   -1.925800215113    0.483356071702
C          1.006774067059   -0.721407195416    0.640896028594
H         -1.583776667974    0.581630506304   -0.987340692537
H          1.546613885034    0.036869224734    1.203697348736
