    9
 SCF done      10.19132337
N         -0.721775614058    0.613002173853   -0.454672953770
C         -0.259366347058   -0.480558697946   -0.009937507521
N         -0.850161423272   -1.762253311989   -0.323407886673
N         -1.829128045084   -2.341553837412   -0.297468114019
O          0.766966306588   -2.727035491043   -0.224888542533
N          1.489015315651   -1.928478494518    0.458387274348
C          1.001479719934   -0.723072122467    0.657897662064
H         -1.574372358936    0.588098086816   -1.007627081982
H          1.528660346434    0.029680860306    1.232747344386
