    9
 SCF done      16.07421389
N         -0.687877482767    0.622919958995   -0.511310493100
C         -0.279487763591   -0.465501240069   -0.007401020933
N         -0.887491222220   -1.745880207217   -0.272185821717
N         -1.793588353893   -2.408789147425   -0.096738206652
O          0.791317163403   -2.653229072746   -0.390109074235
N          1.493744460055   -1.899110162825    0.367519214745
C          0.982033326230   -0.737218049834    0.658202117825
H         -1.523097658442    0.604923677498   -1.097486855369
H          1.455765431526   -0.050286590776    1.380540333736
