    9
 SCF done      16.95243082
N         -0.699750061809    0.618024856087   -0.505828594905
C         -0.277415288864   -0.468745409513   -0.005306012158
N         -0.878680718288   -1.748630145169   -0.231606778902
N         -1.810159462434   -2.397192313276   -0.112741496280
O          0.793123185174   -2.640033594960   -0.421720548023
N          1.499625350266   -1.893002378932    0.352825345027
C          0.988966776280   -0.734795835222    0.669746308955
H         -1.518735395555    0.588368559064   -1.104390545532
H          1.454343515431   -0.056164572579    1.390052516018
