    9
 SCF done      18.75206935
N         -0.666480475933    0.611682436623   -0.545183465512
C         -0.292727774827   -0.468167891120    0.004974746969
N         -0.907574491073   -1.738678130900   -0.213070598164
N         -1.791273631743   -2.430455165004   -0.033816060706
O          0.804395564175   -2.597599815256   -0.511218435752
N          1.511321115804   -1.888204595864    0.321075319829
C          0.981415917457   -0.738369815184    0.696268357779
H         -1.507925892624    0.603245079854   -1.136677333733
H          1.420167569164   -0.085622937650    1.448677663591
