    9
 SCF done      -0.00472129
N         -0.810968705965    0.588442622881   -0.300043178367
C         -0.212170144581   -0.485632881620   -0.052164327400
N         -0.778509344378   -1.774061865803   -0.379326023331
N         -1.710707748402   -2.230475963851   -0.839954436806
O          0.582783842320   -2.794341345982    0.231765689496
N          1.412538880962   -1.937893623652    0.662101356555
C          1.073700332636   -0.698081504327    0.552906327555
H         -1.724566003496    0.515934960409   -0.741029885898
H          1.719216791204    0.083938767344    0.896774672595
