    9
 SCF done      22.75667705
N         -0.652624123251    0.620380239250   -0.568681194539
C         -0.306338593123   -0.464329629136   -0.021736186094
N         -0.912394446209   -1.730286558051   -0.175465983462
N         -1.755374710676   -2.466218619622    0.082454449269
O          0.832614698435   -2.555972055594   -0.594481435172
N          1.515063514564   -1.877689530755    0.276863955472
C          0.964682540978   -0.752716215863    0.684005799701
H         -1.481896685956    0.631703606426   -1.163472639317
H          1.347585705540   -0.137042071157    1.511543428141
