    9
 SCF done      25.57602416
N         -0.628503321547    0.611267187815   -0.603767339317
C         -0.313118172263   -0.468428442429   -0.049443943456
N         -0.937700990912   -1.723681954855   -0.154313987033
N         -1.724060836166   -2.491414477236    0.188904040515
O          0.849602771420   -2.504114164407   -0.666891502170
N          1.514861676765   -1.870552752506    0.254966722834
C          0.955663937204   -0.759616917212    0.682574111751
H         -1.459334952261    0.644383516690   -1.184954061630
H          1.293907788060   -0.170012830259    1.563956152506
