    9
 SCF done      35.59801541
N         -0.513431524039    0.462211847279   -0.750429831949
C         -0.343249850547   -0.576329263939   -0.099046967641
N         -1.243208109184   -1.646315594684    0.037244012764
N         -1.678034215889   -2.433563308880    0.698517530817
O          1.081206077886   -2.061815445836   -1.041628921159
N          1.588715266514   -1.661933931411    0.076826776580
C          0.894742684258   -0.851922504453    0.728812351229
H         -1.291932089727    0.542192295326   -1.376504778759
H          1.056509661027   -0.504694927903    1.757240022217
