    9
 SCF done      36.77707722
N         -0.506359869931    0.423756387937   -0.795870555431
C         -0.366773528336   -0.573468540928   -0.078541734299
N         -1.319312737970   -1.596260471336    0.111278352672
N         -1.731703024617   -2.385623351314    0.827669789607
O          1.287734493130   -1.956224862890   -1.135986138368
N          1.634865166806   -1.620354912373    0.033104238409
C          0.868739019709   -0.897153753443    0.717324684609
H         -1.304522658204    0.499687115669   -1.417550428320
H          0.988651039514   -0.626528445723    1.769601985221
