    9
 SCF done      26.54298825
N         -0.498566352832    0.338944643632   -0.850863353875
C         -0.480572623469   -0.534983232394    0.054164715581
N         -1.445857183183   -1.574538051675    0.237292429962
N         -1.846914566939   -2.240430564514    1.063163918621
O          1.715504330538   -1.755467457302   -1.278511571309
N          1.684105750065   -1.490073755688   -0.078255819442
C          0.792933015378   -1.004505398204    0.666096671823
H         -1.285251541390    0.401752219344   -1.515549873119
H          0.915937072032   -0.872869237499    1.733493075958
