    9
 SCF done      21.13076542
N         -0.447272107880    0.230130647366   -0.892940883589
C         -0.495508600037   -0.614770217572    0.034215192851
N         -1.512568449535   -1.524875006127    0.300002564534
N         -1.951499886468   -2.182778491497    1.124685104863
O          1.739228650102   -1.560822566854   -1.318404078413
N          1.726359937742   -1.393357012909   -0.100242858987
C          0.796133429345   -1.021779957895    0.694492262518
H         -1.216098598325    0.323057383776   -1.567120700257
H          0.912543525155   -0.986975612688    1.756343590779
