    9
 SCF done      19.68066717
N         -0.426472083830    0.144807045261   -0.943003641296
C         -0.496672437100   -0.637652041975    0.032545224799
N         -1.534929551276   -1.504753944592    0.351821454746
N         -2.011468088052   -2.124079268979    1.183971197036
O          1.772760777930   -1.427196535188   -1.318491907616
N          1.749822745320   -1.323284444486   -0.096278058410
C          0.793508947757   -1.042993474430    0.672942241906
H         -1.205729699392    0.271985005084   -1.595335417541
H          0.910497288743   -1.089003175194    1.742859100376
