    9
 SCF done      16.62536126
N         -0.384198251043    0.025194004406   -0.993953739570
C         -0.493361273575   -0.681018970760    0.033011656588
N         -1.507578112901   -1.527836749428    0.392673127149
N         -2.103408293176   -1.949308562463    1.298626597155
O          1.740890902805   -1.100086893502   -1.326621742893
N          1.731588045894   -1.239424738132   -0.121796273612
C          0.787817947864   -1.102327466803    0.685240065065
H         -1.128490456529    0.112735577985   -1.666965437464
H          0.908057390861   -1.270097035802    1.730815941683
