    9
 SCF done       0.00741691
N         -0.807999481332    0.589264107137   -0.302573347703
C         -0.215069553007   -0.487567391757   -0.049944945248
N         -0.778179463051   -1.774256133192   -0.379655287455
N         -1.715098208252   -2.230880627197   -0.831281544132
O          0.585721688670   -2.793579437094    0.226145253782
N          1.414445059247   -1.937253620800    0.656822438142
C          1.072562909566   -0.697413579729    0.554491413425
H         -1.721271583632    0.515741057789   -0.746500169756
H          1.716206531890    0.083774790443    0.903526383145
