    9
 SCF done      13.68789309
N         -0.318418133504   -0.085571171603   -1.005511131602
C         -0.487162199033   -0.711237699131    0.098029656079
N         -1.479926358483   -1.539051986448    0.459774079368
N         -2.222493092328   -1.885624139660    1.243486240279
O          1.552801041860   -0.717076508868   -1.308115967268
N          1.717108507207   -1.140040383957   -0.158908578859
C          0.817790264816   -1.103852030128    0.730582539561
H         -0.986926719825   -0.145737355459   -1.774047831418
H          0.958544589490   -1.403979559145    1.745741187861
