    9
 SCF done      13.42892618
N         -0.308554234479   -0.115320355741   -0.999249748151
C         -0.488896472973   -0.736147804819    0.125500821854
N         -1.460488353099   -1.588182869127    0.461738607643
N         -2.269376595071   -1.923838693323    1.180875611196
O          1.484222051514   -0.654499480968   -1.298486533528
N          1.722974904391   -1.072855718869   -0.158688173775
C          0.832835240410   -1.081922723136    0.742635646272
H         -0.962077315280   -0.163835035935   -1.781779311830
H          1.000678674887   -1.395568152481    1.758483274320
