    9
 SCF done       1.49428260
N         -0.226824475330   -0.212408212979   -0.983647547295
C         -0.477983944007   -0.810828229131    0.249355787965
N         -1.444014403855   -1.642318905063    0.536922667676
N         -2.407796279795   -1.978180513331    1.062344696842
O          1.194980911626   -0.449890909477   -1.310963375070
N          1.760929890664   -0.862295895191   -0.173050588309
C          0.883510661594   -1.077348128932    0.733876451378
H         -0.871702140726   -0.254981465884   -1.780499723047
H          1.140217680028   -1.443918574213    1.696691824160
