    9
 SCF done       0.61175646
N         -0.237461732287   -0.274538872160   -1.004972273989
C         -0.465626609774   -0.863683131201    0.229783912569
N         -1.461853165052   -1.644598532129    0.540588698203
N         -2.426882526058   -1.936279004254    1.075307141071
O          1.174452468645   -0.384333271839   -1.270165722979
N          1.757805410687   -0.786768273993   -0.140261183670
C          0.884291249162   -1.084363584143    0.732093784941
H         -0.821556907859   -0.272455802106   -1.840265624021
H          1.148149712838   -1.485150362475    1.708921461976
