    9
 SCF done       1.26153081
N         -0.232669347393   -0.329630021012   -1.035950809304
C         -0.467000983965   -0.897539389369    0.211486238417
N         -1.462753698794   -1.651971601620    0.534255305317
N         -2.411787718440   -1.964586411905    1.093045141675
O          1.191888121715   -0.375224794707   -1.267752577800
N          1.756025297024   -0.783558874817   -0.126527903716
C          0.877828956630   -1.085488193226    0.737999825463
H         -0.835470658278   -0.180938742594   -1.825907359570
H          1.135257931701   -1.463232804950    1.710382333618
