    9
 SCF done       0.24247030
N         -0.216662276593   -0.585282971249   -1.163100872704
C         -0.459852206699   -0.991230225555    0.166194417036
N         -1.496827206219   -1.631418895183    0.546310453355
N         -2.413988921255   -1.936257557546    1.151322546754
O          1.190339774457   -0.288687837561   -1.249106623579
N          1.740621171411   -0.698450828298   -0.091101489972
C          0.870037595946   -1.131086410262    0.729913785080
H         -0.785694815636   -0.003240234113   -1.763599981611
H          1.123344784888   -1.466515874433    1.704197959741
