    9
 SCF done       0.14824596
N         -0.797673473273    0.590391463976   -0.314228128754
C         -0.223510409632   -0.494341617798   -0.043249337810
N         -0.781971168210   -1.773591035048   -0.377400110990
N         -1.739132548986   -2.231694963072   -0.781790372918
O          0.610445736584   -2.791669556463    0.183395708714
N          1.422203690333   -1.935249281628    0.641633340004
C          1.063833419774   -0.698343848663    0.567844882544
H         -1.700416597839    0.517759684516   -0.776812229637
H          1.697539251449    0.084568319881    0.931636443146
