    9
 SCF done      -2.40042790
N         -0.223691037580   -0.767197356796   -1.270916146382
C         -0.444941134820   -1.071543577693    0.115068610198
N         -1.467614253370   -1.660193266880    0.553199703064
N         -2.430483163898   -1.930728934689    1.132343573596
O          1.183920876670   -0.246413904263   -1.223433065179
N          1.746540252348   -0.613442080567   -0.085427076124
C          0.872948396531   -1.099029938730    0.710636297613
H         -0.803928890576    0.064634119395   -1.619902512710
H          1.118566854896   -1.408255893876    1.719460810025
