    9
 SCF done      -4.89710670
N         -0.230503071864   -0.716107879201   -1.251224724100
C         -0.434415349968   -1.100120206147    0.110604565331
N         -1.488678224996   -1.654711904025    0.550668385450
N         -2.442255707234   -1.953038503405    1.101874955524
O          1.173219646223   -0.351826365488   -1.281519164922
N          1.745375768905   -0.633425833234   -0.093811848260
C          0.871401500256   -1.075463135514    0.726111732617
H         -0.753505742893    0.108731218947   -1.558921432183
H          1.110679081670   -1.356208226233    1.727247724644
