    9
 SCF done      -4.92795928
N         -0.241190826232   -0.706432881099   -1.239703326826
C         -0.433758932639   -1.098341982799    0.121684779744
N         -1.483602639549   -1.665417995949    0.553413004614
N         -2.458611141154   -1.960090851986    1.067175210973
O          1.173552984551   -0.383919156592   -1.296228389228
N          1.748199987990   -0.642406542668   -0.103574905240
C          0.877517977654   -1.068543808846    0.726004773985
H         -0.754185995178    0.124520458817   -1.531843727778
H          1.123396484856   -1.331538073279    1.734102773856
