    9
 SCF done      -5.09872335
N         -0.236207209663   -0.699808269633   -1.251345088989
C         -0.437952354598   -1.102178367021    0.106507835450
N         -1.497032253154   -1.644227786701    0.542056051889
N         -2.426406621778   -1.985064063553    1.107764204595
O          1.179195727476   -0.381728906981   -1.294166497401
N          1.745670120445   -0.652754410904   -0.099448927127
C          0.867108790385   -1.071441510857    0.724610520996
H         -0.743874445236    0.133485530695   -1.543565091276
H          1.100816146422   -1.328453049444    1.738617186063
