    9
 SCF done      -5.06932010
N         -0.232144414220   -0.699213334550   -1.242741216507
C         -0.436224832182   -1.098032231839    0.112796327164
N         -1.497802119535   -1.639959214153    0.543393664241
N         -2.436027117763   -1.976323714931    1.101615616051
O          1.179596436800   -0.372962434373   -1.289904536941
N          1.747260999572   -0.640455131696   -0.095047666109
C          0.872297575801   -1.076250538178    0.723911326395
H         -0.756057008400    0.115926065170   -1.556263669425
H          1.110418380127   -1.344900299750    1.733270349331
