    9
 SCF done      -5.13967750
N         -0.234213139346   -0.706136724954   -1.248549601674
C         -0.435028790015   -1.104327266533    0.109405443922
N         -1.496222998583   -1.641243938569    0.547525598240
N         -2.437983807039   -1.976630812252    1.098075954695
O          1.178397936513   -0.376446782323   -1.292180169086
N          1.746500788483   -0.640461178220   -0.097380547859
C          0.871568131691   -1.073270958421    0.724018868648
H         -0.749994918200    0.124524814613   -1.543399682294
H          1.108294696795   -1.338177987641    1.733514329508
