    9
 SCF done      -5.20878318
N         -0.236773865789   -0.711583156937   -1.255719338056
C         -0.432930715416   -1.117532727850    0.102941287950
N         -1.498648617442   -1.629088748360    0.554785030687
N         -2.439119723284   -1.982486071054    1.094544695450
O          1.180526937268   -0.379438749373   -1.294370536327
N          1.745320300021   -0.637210196311   -0.097966799599
C          0.871430005775   -1.071501205008    0.723159837801
H         -0.744980753497    0.130216811185   -1.529701477190
H          1.106494332663   -1.333546790691    1.733357493284
