    9
 SCF done      -5.25254972
N         -0.235207801663   -0.716982325954   -1.255497808994
C         -0.424734839578   -1.138438641979    0.098817321606
N         -1.501342486978   -1.602844033109    0.570352180456
N         -2.449218530851   -1.980877596492    1.079157625069
O          1.179447054966   -0.368767998993   -1.290832689999
N          1.745941983135   -0.626314948930   -0.096156955989
C          0.877110775290   -1.075633422001    0.721926466449
H         -0.754159631076    0.117920446823   -1.528086039127
H          1.113481376956   -1.340232313564    1.731350094629
