    9
 SCF done      -5.25419115
N         -0.234412647287   -0.717573048230   -1.254849984375
C         -0.423722036411   -1.139985342467    0.098821112715
N         -1.500013346776   -1.604091684842    0.571521409562
N         -2.451515700905   -1.977519778930    1.076945252469
O          1.178277300462   -0.367328554622   -1.290350598794
N          1.746290341643   -0.624936174989   -0.095691956393
C          0.877868081567   -1.076042307396    0.721952236808
H         -0.756186846840    0.116279634760   -1.528371959726
H          1.114732754748   -1.340973577583    1.731054681934
