    9
 SCF done      -5.25458147
N         -0.234025760196   -0.716859844523   -1.254849236079
C         -0.424192536110   -1.138788019621    0.098825148267
N         -1.500273480051   -1.604155650248    0.570870486747
N         -2.450383794816   -1.978550432643    1.078407929751
O          1.178256147958   -0.367327887411   -1.290405391812
N          1.746470110825   -0.626000247380   -0.095548832032
C          0.877350108572   -1.076038310873    0.721990114949
H         -0.755933741610    0.116540883889   -1.529449662060
H          1.114050845829   -1.340991325589    1.731189636469
