    9
 SCF done      -5.25463611
N         -0.234061153852   -0.716818921111   -1.254959458952
C         -0.424297903768   -1.138771654324    0.098714444770
N         -1.500258488250   -1.604252125051    0.570865875856
N         -2.450165556974   -1.978791971641    1.078425939339
O          1.178262783095   -0.367780082027   -1.290604949563
N          1.746437469666   -0.626113147531   -0.095555978671
C          0.877218505185   -1.075959981449    0.721963227175
H         -0.755693068062    0.116962066652   -1.529053748044
H          1.113875313161   -1.340645017916    1.731234842189
