    9
 SCF done       0.37396394
N         -0.801223013681    0.589639420228   -0.314800202540
C         -0.212807380997   -0.490837661696   -0.054668485146
N         -0.778969406934   -1.770628641102   -0.386453277254
N         -1.739014327612   -2.233713370906   -0.780398677511
O          0.612288896617   -2.796581825864    0.186762079248
N          1.420949650633   -1.938732042700    0.652429106192
C          1.063918814468   -0.702137601038    0.568549057550
H         -1.707161418395    0.524380290969   -0.766079332659
H          1.693336086201    0.086440597509    0.925689926320
