    9
 SCF done       1.95728685
N         -0.787870470077    0.598986733922   -0.335620070898
C         -0.216756613059   -0.490320547979   -0.049742575937
N         -0.787502363973   -1.770060833925   -0.388223792021
N         -1.775047955666   -2.256002511776   -0.684878501858
O          0.652434582667   -2.799156119700    0.117146795927
N          1.436304342349   -1.942511900586    0.621440395010
C          1.052209089859   -0.705210870659    0.587636606290
H         -1.682402046386    0.545816069150   -0.819630140411
H          1.659949334685    0.086289146952    0.982901478099
