          12
  -21.3684380342816     
 C         1.128656604       0.764774902       1.180759717
 O         0.076250142       1.152581903       1.575315490
 C         1.526924588       0.874946115      -0.294597376
 H         1.896587615       0.320417178       1.785372928
 C         1.530223271      -0.603119021      -0.404877885
 H         2.517267303       1.358974695      -0.695550693
 H         0.691294049       1.317067784      -0.956004982
 O         0.440824619      -0.854099078       0.595086121
 H         2.290721702      -1.157459229       0.024589595
 H         1.331445609      -1.135710704      -1.346436747
 O        -0.923773098      -0.608529974       0.105403980
 H        -1.049444849       0.417005744       0.201042421
