          12
  -21.3303000726497     
 C         0.691184951       1.034285110       1.331092863
 O         0.650310498       2.141406533       1.710042966
 C         1.134064149       0.779028352      -0.142203386
 H         0.688121466       0.060685262       1.969215726
 C         1.592843387      -0.727148145      -0.254683883
 H         1.682122714       1.627492210      -0.425624885
 H         0.300686940       0.709222877      -0.900179303
 O         0.380170791      -1.456266576      -0.366132787
 H         2.271235745      -1.222983521       0.385238045
 H         2.094831011      -0.978896922      -1.207218938
 O        -0.712227833      -0.780767017       0.340121737
 H        -0.548029430      -1.088173523       1.205575873
