          12
  -21.4672806293603     
 C         2.078531704       1.307969678      -0.084095033
 O         1.085707945       0.409421407       1.115965942
 C         1.507553574      -0.148553883      -0.010022952
 H         3.011460910       1.613085938       0.401288286
 C        -1.114657534      -1.615322724       1.846460581
 H         0.541659800      -0.601280729      -0.657722902
 H         2.320283286      -0.938937258       0.188821587
 O        -1.392877397      -1.615721440       0.545192382
 H        -2.017466340      -0.901867571       2.182416275
 H        -0.177233148      -1.996046421       2.307248613
 O         1.478071294       2.232546272      -0.889315118
 H         0.847016194       1.812841818      -1.575539405
