          12
  -21.4657982479813     
 C         1.981337283       0.590455700       0.198191214
 O         1.796155329      -0.753169794      -0.069064630
 C         2.667593354       0.473465496      -0.944944697
 H         2.190384694       0.452424971       1.225440080
 C        -2.245489645      -0.854035141       1.367494120
 H         2.079969976       0.583701971      -2.066790403
 H         3.444061545      -0.212250245      -0.892689510
 O        -1.233622213      -0.350781109       1.911513463
 H        -2.717065466      -0.292034079       0.489832959
 H        -2.508620333      -1.902461009       1.561488840
 O         0.791590799       1.421496417       0.165195892
 H         0.887668420       2.044141806      -0.543049634
